<tazs>
    <taz id="A" edges="AD"/>
    <taz id="B" edges="IL"/>
</tazs>


