<tazs>
    <taz id="A" edges="AD"/>
    <taz id="B" edges="LI"/>
</tazs>


