<edges>
    <edge id="AD" from="A" to="D" numLanes="1" speed="10"/>
    <edge id="DA" from="D" to="A" numLanes="1" speed="10"/>
    <edge id="BE" from="B" to="E" numLanes="1" speed="10"/>
    <edge id="EB" from="E" to="B" numLanes="1" speed="10"/>
    <edge id="CD" from="C" to="D" numLanes="1" speed="10"/>
    <edge id="DC" from="D" to="C" numLanes="1" speed="10"/>
    <edge id="DE" from="D" to="E" numLanes="1" speed="10"/>
    <edge id="ED" from="E" to="D" numLanes="1" speed="10"/>
    <edge id="EF" from="E" to="F" numLanes="1" speed="10"/>
    <edge id="FE" from="F" to="E" numLanes="1" speed="10"/>
    <edge id="DH" from="D" to="H" numLanes="1" speed="10"/>
    <edge id="HD" from="H" to="D" numLanes="1" speed="10"/>
    <edge id="EI" from="E" to="I" numLanes="1" speed="10"/>
    <edge id="IE" from="I" to="E" numLanes="1" speed="10"/>
    <edge id="GH" from="G" to="H" numLanes="1" speed="10"/>
    <edge id="HG" from="H" to="G" numLanes="1" speed="10"/>
    <edge id="HI" from="H" to="I" numLanes="1" speed="10"/>
    <edge id="IH" from="I" to="H" numLanes="1" speed="10"/>
    <edge id="IJ" from="I" to="J" numLanes="1" speed="10"/>
    <edge id="JI" from="J" to="I" numLanes="1" speed="10"/>
    <edge id="HK" from="H" to="K" numLanes="1" speed="10"/>
    <edge id="KH" from="K" to="H" numLanes="1" speed="10"/>
    <edge id="IL" from="I" to="L" numLanes="1" speed="10"/>
    <edge id="LI" from="L" to="I" numLanes="1" speed="10"/>
</edges>
