<?xml version="1.0" encoding="UTF-8"?>

<!-- generated on 2025-03-09 12:06:56.291325 by gridDistricts.py v1_22_0+0002-63e50f52594
<configuration>
    <net-file value="C:\Users\alber\Workspace\proyecto\src\assets\red_hidalgo-federalismo.net.xml"/>
    <output value="C:\Users\alber\Workspace\proyecto\src\assets\od_matrix.od.xml"/>
</configuration>
-->

<additional xmlns:xsi="http://www.w3.org/2001/XMLSchema-instance" xsi:noNamespaceSchemaLocation="http://sumo.dlr.de/xsd/additional_file.xsd">
    <taz id="14_19" shape="1351.0,1851.0 1449.0,1851.0 1449.0,1949.0 1351.0,1949.0 1351.0,1851.0" color="173,255,0" edges="1140687344#0"/>
    <taz id="18_17" shape="1751.0,1651.0 1849.0,1651.0 1849.0,1749.0 1751.0,1749.0 1751.0,1651.0" color="255,0,233" edges="298742305#0"/>
    <taz id="19_18" shape="1851.0,1751.0 1949.0,1751.0 1949.0,1849.0 1851.0,1849.0 1851.0,1751.0" color="58,0,255" edges="431593423#2"/>
    <taz id="20_18" shape="1951.0,1751.0 2049.0,1751.0 2049.0,1849.0 1951.0,1849.0 1951.0,1751.0" color="0,137,255" edges="431593423#1"/>
    <taz id="22_17" shape="2151.0,1651.0 2249.0,1651.0 2249.0,1749.0 2151.0,1749.0 2151.0,1651.0" color="0,96,255" edges="298742305#1"/>
    <taz id="24_18" shape="2351.0,1751.0 2449.0,1751.0 2449.0,1849.0 2351.0,1849.0 2351.0,1751.0" color="255,0,212" edges="431593423#0"/>
    <taz id="26_17" shape="2551.0,1651.0 2649.0,1651.0 2649.0,1749.0 2551.0,1749.0 2551.0,1651.0" color="215,0,255" edges="298742305#2"/>
    <taz id="27_16" shape="2651.0,1551.0 2749.0,1551.0 2749.0,1649.0 2651.0,1649.0 2651.0,1551.0" color="0,255,136" edges="-901525037 -952127523 901525037 952127523"/>
    <taz id="27_17" shape="2651.0,1651.0 2749.0,1651.0 2749.0,1749.0 2651.0,1749.0 2651.0,1651.0" color="15,0,255" edges="-827463125 1213382695 827463125"/>
    <taz id="27_18" shape="2651.0,1751.0 2749.0,1751.0 2749.0,1849.0 2651.0,1849.0 2651.0,1751.0" color="107,0,255" edges="-806167858 806167858"/>
    <taz id="27_19" shape="2651.0,1851.0 2749.0,1851.0 2749.0,1949.0 2651.0,1949.0 2651.0,1851.0" color="255,38,0" edges="-806161325#0 -806161325#1 806161325#0 806161325#1 834332569"/>
    <taz id="27_20" shape="2651.0,1951.0 2749.0,1951.0 2749.0,2049.0 2651.0,2049.0 2651.0,1951.0" color="89,255,0" edges="-806161325#2 806161325#2"/>
    <taz id="27_21" shape="2651.0,2051.0 2749.0,2051.0 2749.0,2149.0 2651.0,2149.0 2651.0,2051.0" color="168,255,0" edges="-806161325#3"/>
    <taz id="28_16" shape="2751.0,1551.0 2849.0,1551.0 2849.0,1649.0 2751.0,1649.0 2751.0,1551.0" color="255,142,0" edges="169515605"/>
    <taz id="28_17" shape="2751.0,1651.0 2849.0,1651.0 2849.0,1749.0 2751.0,1749.0 2751.0,1651.0" color="255,238,0" edges="1213382696 154904494#1 298742305#3 298742305#4 298742305#5 827447035"/>
    <taz id="28_18" shape="2751.0,1751.0 2849.0,1751.0 2849.0,1849.0 2751.0,1849.0 2751.0,1751.0" color="0,247,255" edges="-901858160 154904494#0 806165134#8 901858160"/>
    <taz id="28_19" shape="2751.0,1851.0 2849.0,1851.0 2849.0,1949.0 2751.0,1949.0 2751.0,1851.0" color="0,118,255" edges="1140687344#1 806165132#1 806165132#2 834332778 834332779"/>
    <taz id="28_20" shape="2751.0,1951.0 2849.0,1951.0 2849.0,2049.0 2751.0,2049.0 2751.0,1951.0" color="67,255,0" edges="806161325#3"/>
    <taz id="28_22" shape="2751.0,2151.0 2849.0,2151.0 2849.0,2249.0 2751.0,2249.0 2751.0,2151.0" color="154,255,0" edges="806165132#0"/>
    <taz id="29_16" shape="2851.0,1551.0 2949.0,1551.0 2949.0,1649.0 2851.0,1649.0 2851.0,1551.0" color="255,0,65" edges="1238645511"/>
    <taz id="29_17" shape="2851.0,1651.0 2949.0,1651.0 2949.0,1749.0 2851.0,1749.0 2851.0,1651.0" color="0,26,255" edges="-947678683 1213382697 298742305#6 33265860#0 33265860#1 33265860#2 947678682#0"/>
    <taz id="29_18" shape="2851.0,1751.0 2949.0,1751.0 2949.0,1849.0 2851.0,1849.0 2851.0,1751.0" color="255,46,0" edges="-901528152 -952568801 33265860#3 806165134#6 806165134#7 901528152 952568801"/>
    <taz id="29_19" shape="2851.0,1851.0 2949.0,1851.0 2949.0,1949.0 2851.0,1949.0 2851.0,1851.0" color="218,0,255" edges="1140687344#2 806165127#0 806165127#1 834332776#0 834332776#1 834332777#0 834332777#1"/>
    <taz id="29_20" shape="2851.0,1951.0 2949.0,1951.0 2949.0,2049.0 2851.0,2049.0 2851.0,1951.0" color="175,255,0" edges="-901533642 901533642"/>
    <taz id="30_10" shape="2951.0,951.0 3049.0,951.0 3049.0,1049.0 2951.0,1049.0 2951.0,951.0" color="0,255,5" edges="13866063"/>
    <taz id="30_17" shape="2951.0,1651.0 3049.0,1651.0 3049.0,1749.0 2951.0,1749.0 2951.0,1651.0" color="0,42,255" edges="-1238184751#0 -1238184751#1 -1238184752 -947678682#0 -947678682#1 -947678684#0 -947678684#1 1238184751#0 1238184751#1 1238184752 1238184753 1238184754 312688113#0 312688113#1 947678682#1 947678683 947678684#0 947678684#1"/>
    <taz id="30_18" shape="2951.0,1751.0 3049.0,1751.0 3049.0,1849.0 2951.0,1849.0 2951.0,1751.0" color="96,0,255" edges="298742305#7 33266672 806165134#4 806165134#5"/>
    <taz id="30_19" shape="2951.0,1851.0 3049.0,1851.0 3049.0,1949.0 2951.0,1949.0 2951.0,1851.0" color="255,10,0" edges="1140687344#3 33266644#1 33266644#2 834332774 834332775"/>
    <taz id="30_22" shape="2951.0,2151.0 3049.0,2151.0 3049.0,2249.0 2951.0,2249.0 2951.0,2151.0" color="255,122,0" edges="806165127#2"/>
    <taz id="31_16" shape="3051.0,1551.0 3149.0,1551.0 3149.0,1649.0 3051.0,1649.0 3051.0,1551.0" color="0,255,11" edges="1213382687"/>
    <taz id="31_17" shape="3051.0,1651.0 3149.0,1651.0 3149.0,1749.0 3051.0,1749.0 3051.0,1651.0" color="0,186,255" edges="1075394721 1075394722 1075394723 1075394724 1213382698#2 463935801 463965070 854111527"/>
    <taz id="31_18" shape="3051.0,1751.0 3149.0,1751.0 3149.0,1849.0 3051.0,1849.0 3051.0,1751.0" color="0,200,255" edges="298742305#8 689245967 806165134#3"/>
    <taz id="31_19" shape="3051.0,1851.0 3149.0,1851.0 3149.0,1949.0 3051.0,1949.0 3051.0,1851.0" color="213,0,255" edges="1140687344#4 33266886#0 33266886#1 498920722#0"/>
    <taz id="31_20" shape="3051.0,1951.0 3149.0,1951.0 3149.0,2049.0 3051.0,2049.0 3051.0,1951.0" color="0,255,56" edges="901866847"/>
    <taz id="31_22" shape="3051.0,2151.0 3149.0,2151.0 3149.0,2249.0 3051.0,2249.0 3051.0,2151.0" color="249,0,255" edges="33266644#0"/>
    <taz id="32_8" shape="3151.0,751.0 3249.0,751.0 3249.0,849.0 3151.0,849.0 3151.0,751.0" color="0,175,255" edges="301319790#8 312538668#0"/>
    <taz id="32_15" shape="3151.0,1451.0 3249.0,1451.0 3249.0,1549.0 3151.0,1549.0 3151.0,1451.0" color="255,70,0" edges="431593428#0"/>
    <taz id="32_16" shape="3151.0,1551.0 3249.0,1551.0 3249.0,1649.0 3151.0,1649.0 3151.0,1551.0" color="161,255,0" edges="431593428#1 806165135"/>
    <taz id="32_17" shape="3151.0,1651.0 3249.0,1651.0 3249.0,1749.0 3151.0,1749.0 3151.0,1651.0" color="206,255,0" edges="-901861636#1 1213382698#0 1213382698#1 1238645509#2 298742240#0 298742240#1 301319790#7 312538668#1 312538668#2 431593424 463935799 901861636#1"/>
    <taz id="32_18" shape="3151.0,1751.0 3249.0,1751.0 3249.0,1849.0 3151.0,1849.0 3151.0,1751.0" color="255,133,0" edges="-901502444#0 -901502444#1 -901502444#2 -901531865 -901531866#0 -901531866#1 -901531866#2 -901531867#0 -901531867#1 -901531867#2 298742305#10 298742305#11 298742305#9 301319790#4 301319790#5 301319790#6 312538668#3 806165134#0 806165134#1 806165134#2 806165136 827477049#0 827477049#1 827477050#2 828184376 834333764 854302548#4 901502444#0 901502444#1 901531865 901531866#0 901531866#1 901531866#2 901531867#0 901531867#1 901531867#2 939418129#0 939418129#1"/>
    <taz id="32_19" shape="3151.0,1851.0 3249.0,1851.0 3249.0,1949.0 3151.0,1949.0 3151.0,1851.0" color="255,0,165" edges="-901502442 -901502443#0 -901502443#1 1140687344#5 1140687344#6 1140687344#7 1140687344#8 301319790#2 301319790#3 312538668#4 312538668#5 498920722#1 806165137 827477050#0 827477050#1 834333260#0 834333260#1 834333763#0 834333763#1 834333765 834334656#0 901502442 901502443#0 901502443#1 901502444#2"/>
    <taz id="32_20" shape="3151.0,1951.0 3249.0,1951.0 3249.0,2049.0 3151.0,2049.0 3151.0,1951.0" color="0,74,255" edges="431593422"/>
    <taz id="32_40" shape="3151.0,3951.0 3249.0,3951.0 3249.0,4049.0 3151.0,4049.0 3151.0,3951.0" color="255,0,41" edges="301319790#0 312538668#7"/>
    <taz id="33_17" shape="3251.0,1651.0 3349.0,1651.0 3349.0,1749.0 3251.0,1749.0 3251.0,1651.0" color="255,41,0" edges="-901861636#0 1238645509#0 1238645509#1 901861636#0"/>
    <taz id="33_18" shape="3251.0,1751.0 3349.0,1751.0 3349.0,1849.0 3251.0,1849.0 3251.0,1751.0" color="0,255,48" edges="854302548#3 939418129#2"/>
    <taz id="33_19" shape="3251.0,1851.0 3349.0,1851.0 3349.0,1949.0 3251.0,1949.0 3251.0,1851.0" color="255,155,0" edges="834334656#1"/>
    <taz id="33_28" shape="3251.0,2751.0 3349.0,2751.0 3349.0,2849.0 3251.0,2849.0 3251.0,2751.0" color="0,255,69" edges="301319790#1 312538668#6 463705530 463705537"/>
    <taz id="34_18" shape="3351.0,1751.0 3449.0,1751.0 3449.0,1849.0 3351.0,1849.0 3351.0,1751.0" color="0,47,255" edges="854302548#2"/>
    <taz id="35_18" shape="3451.0,1751.0 3549.0,1751.0 3549.0,1849.0 3451.0,1849.0 3451.0,1751.0" color="85,255,0" edges="854302548#1"/>
    <taz id="36_19" shape="3551.0,1851.0 3649.0,1851.0 3649.0,1949.0 3551.0,1949.0 3551.0,1851.0" color="48,0,255" edges="1140687344#9 854302548#0"/>
    <taz id="73_10" shape="7251.0,951.0 7349.0,951.0 7349.0,1049.0 7251.0,1049.0 7251.0,951.0" color="255,148,0" edges="26810108 463935792"/>
</additional>
