<?xml version="1.0" encoding="UTF-8"?>

<!-- generated on 2025-04-15 18:38:32 by Eclipse SUMO netedit Version 1.21.0
<neteditConfiguration xmlns:xsi="http://www.w3.org/2001/XMLSchema-instance" xsi:noNamespaceSchemaLocation="http://sumo.dlr.de/xsd/neteditConfiguration.xsd">

    <input>
        <sumo-net-file value="C:\Users\Xih12\Downloads\aPeticionDeRobert.net.xml"/>
    </input>

    <output>
        <output-file value="C:\Users\Xih12\Downloads\aPeticionDeRobert.net.xml"/>
    </output>

    <processing>
        <geometry.min-radius.fix.railways value="false"/>
        <geometry.max-grade.fix value="false"/>
        <offset.disable-normalization value="true"/>
        <lefthand value="0"/>
    </processing>

    <junctions>
        <no-turnarounds value="true"/>
        <junctions.corner-detail value="5"/>
        <junctions.limit-turn-speed value="5.50"/>
        <rectangular-lane-cut value="0"/>
    </junctions>

    <pedestrian>
        <walkingareas value="0"/>
    </pedestrian>

</neteditConfiguration>
-->

<net version="1.20" junctionCornerDetail="5" limitTurnSpeed="5.50" xmlns:xsi="http://www.w3.org/2001/XMLSchema-instance" xsi:noNamespaceSchemaLocation="http://sumo.dlr.de/xsd/net_file.xsd">

    <location netOffset="-669913.25,-2285910.96" convBoundary="1282.92,1041.60,2311.22,1553.21" origBoundary="-103.385786,20.659836,-103.276560,20.711113" projParameter="+proj=utm +zone=13 +ellps=WGS84 +datum=WGS84 +units=m +no_defs"/>

    <type id="highway.primary" priority="12" numLanes="2" speed="27.78" disallow="tram rail_urban rail rail_electric rail_fast ship container cable_car subway aircraft wheelchair scooter drone" oneway="0"/>
    <type id="highway.residential" priority="3" numLanes="1" speed="13.89" disallow="tram rail_urban rail rail_electric rail_fast ship container cable_car subway aircraft wheelchair scooter drone" oneway="0"/>
    <type id="highway.secondary" priority="11" numLanes="1" speed="27.78" disallow="tram rail_urban rail rail_electric rail_fast ship container cable_car subway aircraft wheelchair scooter drone" oneway="0"/>

    <edge id=":1224435523_0" function="internal">
        <lane id=":1224435523_0_0" index="0" disallow="tram rail_urban rail rail_electric rail_fast ship container cable_car subway aircraft wheelchair scooter drone" speed="13.89" length="8.21" shape="1456.25,1286.18 1453.84,1286.35 1452.22,1286.85 1450.60,1287.34 1448.19,1287.50"/>
        <lane id=":1224435523_0_1" index="1" disallow="tram rail_urban rail rail_electric rail_fast ship container cable_car subway aircraft wheelchair scooter drone" speed="13.89" length="8.21" shape="1456.25,1286.18 1453.86,1285.85 1452.28,1285.25 1450.70,1284.64 1448.31,1284.30"/>
    </edge>
    <edge id=":1224435528_0" function="internal">
        <lane id=":1224435528_0_0" index="0" disallow="tram rail_urban rail rail_electric rail_fast ship container cable_car subway aircraft wheelchair scooter drone" speed="6.43" length="9.03" shape="1603.48,1292.35 1601.00,1292.59 1599.23,1293.56 1598.14,1295.28 1597.76,1297.74"/>
    </edge>
    <edge id=":1224435528_1" function="internal">
        <lane id=":1224435528_1_0" index="0" disallow="tram rail_urban rail rail_electric rail_fast ship container cable_car subway aircraft wheelchair scooter drone" speed="13.89" length="11.41" shape="1603.48,1292.35 1592.08,1291.83"/>
    </edge>
    <edge id=":1224435528_2" function="internal">
        <lane id=":1224435528_2_0" index="0" disallow="tram rail_urban rail rail_electric rail_fast ship container cable_car subway aircraft wheelchair scooter drone" speed="13.89" length="11.41" shape="1597.54,1286.33 1597.76,1297.74"/>
    </edge>
    <edge id=":1224435528_3" function="internal">
        <lane id=":1224435528_3_0" index="0" disallow="tram rail_urban rail rail_electric rail_fast ship container cable_car subway aircraft wheelchair scooter drone" speed="6.31" length="9.04" shape="1597.54,1286.33 1597.31,1288.83 1596.32,1290.58 1594.58,1291.58 1592.08,1291.83"/>
    </edge>
    <edge id=":1224744760_0" function="internal">
        <lane id=":1224744760_0_0" index="0" disallow="tram rail_urban rail rail_electric rail_fast ship container cable_car subway aircraft wheelchair scooter drone" speed="6.55" length="9.11" shape="1472.83,1209.75 1473.13,1212.22 1474.15,1214.01 1475.89,1215.12 1478.36,1215.55"/>
    </edge>
    <edge id=":1224744760_1" function="internal">
        <lane id=":1224744760_1_0" index="0" disallow="tram rail_urban rail rail_electric rail_fast ship container cable_car subway aircraft wheelchair scooter drone" speed="27.78" length="11.38" shape="1472.83,1209.75 1472.80,1221.02"/>
        <lane id=":1224744760_1_1" index="1" disallow="tram rail_urban rail rail_electric rail_fast ship container cable_car subway aircraft wheelchair scooter drone" speed="27.78" length="11.38" shape="1469.63,1209.68 1469.60,1221.07"/>
        <lane id=":1224744760_1_2" index="2" disallow="tram rail_urban rail rail_electric rail_fast ship container cable_car subway aircraft wheelchair scooter drone" speed="27.78" length="11.38" shape="1466.43,1209.61 1466.40,1221.12"/>
    </edge>
    <edge id=":1224744760_4" function="internal">
        <lane id=":1224744760_4_0" index="0" disallow="tram rail_urban rail rail_electric rail_fast ship container cable_car subway aircraft wheelchair scooter drone" speed="13.89" length="17.63" shape="1460.73,1215.05 1478.36,1215.55"/>
    </edge>
    <edge id=":1224744760_5" function="internal">
        <lane id=":1224744760_5_0" index="0" disallow="tram rail_urban rail rail_electric rail_fast ship container cable_car subway aircraft wheelchair scooter drone" speed="7.51" length="11.98" shape="1460.73,1215.05 1464.58,1215.51 1467.34,1216.67 1469.01,1218.52 1469.60,1221.07"/>
        <lane id=":1224744760_5_1" index="1" disallow="tram rail_urban rail rail_electric rail_fast ship container cable_car subway aircraft wheelchair scooter drone" speed="6.72" length="9.38" shape="1460.73,1215.05 1463.18,1215.48 1464.94,1216.64 1466.01,1218.52 1466.40,1221.12"/>
    </edge>
    <edge id=":1224744792_0" function="internal">
        <lane id=":1224744792_0_0" index="0" disallow="tram rail_urban rail rail_electric rail_fast ship container cable_car subway aircraft wheelchair scooter drone" speed="6.66" length="8.84" shape="1805.38,1217.43 1805.84,1219.79 1806.93,1221.50 1808.65,1222.57 1810.99,1222.99"/>
    </edge>
    <edge id=":1224744792_1" function="internal">
        <lane id=":1224744792_1_0" index="0" disallow="tram rail_urban rail rail_electric rail_fast ship container cable_car subway aircraft wheelchair scooter drone" speed="13.89" length="10.70" shape="1805.38,1217.43 1805.72,1228.12"/>
    </edge>
    <edge id=":1224744792_2" function="internal">
        <lane id=":1224744792_2_0" index="0" disallow="tram rail_urban rail rail_electric rail_fast ship container cable_car subway aircraft wheelchair scooter drone" speed="13.89" length="10.70" shape="1800.30,1222.69 1810.99,1222.99"/>
    </edge>
    <edge id=":1224744792_3" function="internal">
        <lane id=":1224744792_3_0" index="0" disallow="tram rail_urban rail rail_electric rail_fast ship container cable_car subway aircraft wheelchair scooter drone" speed="6.46" length="8.69" shape="1800.30,1222.69 1802.65,1223.07 1804.34,1224.10 1805.36,1225.78 1805.72,1228.12"/>
    </edge>
    <edge id=":1224744820_0" function="internal">
        <lane id=":1224744820_0_0" index="0" disallow="tram rail_urban rail rail_electric rail_fast ship container cable_car subway aircraft wheelchair scooter drone" speed="13.89" length="8.21" shape="1447.87,1216.30 1450.27,1216.11 1451.89,1215.61 1453.51,1215.10 1455.91,1214.92"/>
    </edge>
    <edge id=":1287228751_0" function="internal">
        <lane id=":1287228751_0_0" index="0" disallow="tram rail_urban rail rail_electric rail_fast ship container cable_car subway aircraft wheelchair scooter drone" speed="6.74" length="9.55" shape="1596.80,1375.94 1597.16,1378.38 1598.30,1380.15 1600.23,1381.27 1602.94,1381.72"/>
    </edge>
    <edge id=":1287228751_1" function="internal">
        <lane id=":1287228751_1_0" index="0" disallow="tram rail_urban rail rail_electric rail_fast ship container cable_car subway aircraft wheelchair scooter drone" speed="13.89" length="17.66" shape="1596.80,1375.94 1596.81,1380.11 1596.95,1384.77 1597.17,1389.43 1597.48,1393.58"/>
    </edge>
    <edge id=":1287228751_2" function="internal">
        <lane id=":1287228751_2_0" index="0" disallow="tram rail_urban rail rail_electric rail_fast ship container cable_car subway aircraft wheelchair scooter drone" speed="27.78" length="11.73" shape="1591.20,1381.28 1602.94,1381.72"/>
        <lane id=":1287228751_2_1" index="1" disallow="tram rail_urban rail rail_electric rail_fast ship container cable_car subway aircraft wheelchair scooter drone" speed="27.78" length="11.73" shape="1591.09,1384.48 1602.81,1384.92"/>
        <lane id=":1287228751_2_2" index="2" disallow="tram rail_urban rail rail_electric rail_fast ship container cable_car subway aircraft wheelchair scooter drone" speed="27.78" length="11.73" shape="1590.98,1387.68 1602.68,1388.12"/>
    </edge>
    <edge id=":1287228751_5" function="internal">
        <lane id=":1287228751_5_0" index="0" disallow="tram rail_urban rail rail_electric rail_fast ship container cable_car subway aircraft wheelchair scooter drone" speed="7.05" length="9.76" shape="1590.98,1387.68 1593.63,1388.12 1595.60,1389.25 1596.88,1391.07 1597.48,1393.58"/>
    </edge>
    <edge id=":130153815_0" function="internal">
        <lane id=":130153815_0_0" index="0" disallow="tram rail_urban rail rail_electric rail_fast ship container cable_car subway aircraft wheelchair scooter drone" speed="6.90" length="9.95" shape="1474.29,1371.04 1474.70,1373.58 1475.91,1375.44 1477.91,1376.60 1480.72,1377.07"/>
    </edge>
    <edge id=":130153815_1" function="internal">
        <lane id=":130153815_1_0" index="0" disallow="tram rail_urban rail rail_electric rail_fast ship container cable_car subway aircraft wheelchair scooter drone" speed="27.78" length="18.30" shape="1474.29,1371.04 1474.33,1376.36 1474.48,1380.00 1474.82,1383.63 1475.46,1388.91"/>
        <lane id=":130153815_1_1" index="1" disallow="tram rail_urban rail rail_electric rail_fast ship container cable_car subway aircraft wheelchair scooter drone" speed="27.78" length="18.30" shape="1471.09,1371.06 1471.14,1376.49 1471.28,1380.20 1471.63,1383.91 1472.29,1389.30"/>
        <lane id=":130153815_1_2" index="2" disallow="tram rail_urban rail rail_electric rail_fast ship container cable_car subway aircraft wheelchair scooter drone" speed="27.78" length="18.30" shape="1467.89,1371.07 1467.94,1376.62 1468.09,1380.41 1468.44,1384.19 1469.11,1389.69"/>
    </edge>
    <edge id=":130153815_4" function="internal">
        <lane id=":130153815_4_0" index="0" disallow="tram rail_urban rail rail_electric rail_fast ship container cable_car subway aircraft wheelchair scooter drone" speed="27.78" length="18.31" shape="1462.42,1376.36 1480.72,1377.07"/>
        <lane id=":130153815_4_1" index="1" disallow="tram rail_urban rail rail_electric rail_fast ship container cable_car subway aircraft wheelchair scooter drone" speed="27.78" length="18.31" shape="1462.29,1379.56 1480.59,1380.27"/>
        <lane id=":130153815_4_2" index="2" disallow="tram rail_urban rail rail_electric rail_fast ship container cable_car subway aircraft wheelchair scooter drone" speed="27.78" length="18.31" shape="1462.17,1382.75 1480.47,1383.47"/>
    </edge>
    <edge id=":130153815_7" function="internal">
        <lane id=":130153815_7_0" index="0" disallow="tram rail_urban rail rail_electric rail_fast ship container cable_car subway aircraft wheelchair scooter drone" speed="8.22" length="13.20" shape="1462.17,1382.75 1466.31,1383.30 1469.38,1384.57 1471.37,1386.57 1472.29,1389.30"/>
        <lane id=":130153815_7_1" index="1" disallow="tram rail_urban rail rail_electric rail_fast ship container cable_car subway aircraft wheelchair scooter drone" speed="7.50" length="10.83" shape="1462.17,1382.75 1464.90,1383.28 1466.96,1384.61 1468.37,1386.75 1469.11,1389.69"/>
    </edge>
    <edge id=":1369529293_0" function="internal">
        <lane id=":1369529293_0_0" index="0" disallow="tram rail_urban rail rail_electric rail_fast ship container cable_car subway aircraft wheelchair scooter drone" speed="6.41" length="9.04" shape="1812.16,1306.35 1809.69,1306.63 1807.93,1307.64 1806.90,1309.38 1806.59,1311.86"/>
    </edge>
    <edge id=":1369529293_1" function="internal">
        <lane id=":1369529293_1_0" index="0" disallow="tram rail_urban rail rail_electric rail_fast ship container cable_car subway aircraft wheelchair scooter drone" speed="13.89" length="11.44" shape="1812.16,1306.35 1800.75,1305.66"/>
    </edge>
    <edge id=":1369529293_2" function="internal">
        <lane id=":1369529293_2_0" index="0" disallow="tram rail_urban rail rail_electric rail_fast ship container cable_car subway aircraft wheelchair scooter drone" speed="13.89" length="11.44" shape="1806.43,1300.41 1806.59,1311.86"/>
    </edge>
    <edge id=":1369529293_3" function="internal">
        <lane id=":1369529293_3_0" index="0" disallow="tram rail_urban rail rail_electric rail_fast ship container cable_car subway aircraft wheelchair scooter drone" speed="6.30" length="9.04" shape="1806.43,1300.41 1806.10,1302.90 1805.04,1304.61 1803.26,1305.53 1800.75,1305.66"/>
    </edge>
    <edge id=":1369529309_0" function="internal">
        <lane id=":1369529309_0_0" index="0" disallow="tram rail_urban rail rail_electric rail_fast ship container cable_car subway aircraft wheelchair scooter drone" speed="7.06" length="10.40" shape="1807.86,1383.44 1808.27,1386.54 1809.37,1388.77 1811.16,1390.15 1813.63,1390.67"/>
    </edge>
    <edge id=":1369529309_1" function="internal">
        <lane id=":1369529309_1_0" index="0" disallow="tram rail_urban rail rail_electric rail_fast ship container cable_car subway aircraft wheelchair scooter drone" speed="13.89" length="17.20" shape="1807.86,1383.44 1808.21,1400.64"/>
    </edge>
    <edge id=":1369529309_2" function="internal">
        <lane id=":1369529309_2_0" index="0" disallow="tram rail_urban rail rail_electric rail_fast ship container cable_car subway aircraft wheelchair scooter drone" speed="27.78" length="11.28" shape="1802.51,1388.83 1805.84,1389.12 1808.07,1389.71 1810.31,1390.32 1813.63,1390.67"/>
        <lane id=":1369529309_2_1" index="1" disallow="tram rail_urban rail rail_electric rail_fast ship container cable_car subway aircraft wheelchair scooter drone" speed="27.78" length="11.28" shape="1802.48,1392.03 1805.78,1392.32 1808.00,1392.90 1810.23,1393.52 1813.53,1393.87"/>
    </edge>
    <edge id=":1369529309_4" function="internal">
        <lane id=":1369529309_4_0" index="0" disallow="tram rail_urban rail rail_electric rail_fast ship container cable_car subway aircraft wheelchair scooter drone" speed="6.59" length="8.92" shape="1802.44,1395.23 1804.88,1395.59 1806.66,1396.61 1807.76,1398.30 1808.21,1400.64"/>
    </edge>
    <edge id=":1369529315_0" function="internal">
        <lane id=":1369529315_0_0" index="0" disallow="tram rail_urban rail rail_electric rail_fast ship container cable_car subway aircraft wheelchair scooter drone" speed="6.44" length="9.03" shape="1816.80,1473.44 1814.33,1473.75 1812.58,1474.77 1811.54,1476.52 1811.22,1478.98"/>
    </edge>
    <edge id=":1369529315_1" function="internal">
        <lane id=":1369529315_1_0" index="0" disallow="tram rail_urban rail rail_electric rail_fast ship container cable_car subway aircraft wheelchair scooter drone" speed="13.89" length="11.29" shape="1816.80,1473.44 1805.51,1473.42"/>
    </edge>
    <edge id=":1369529315_2" function="internal">
        <lane id=":1369529315_2_0" index="0" disallow="tram rail_urban rail rail_electric rail_fast ship container cable_car subway aircraft wheelchair scooter drone" speed="13.89" length="11.29" shape="1810.92,1467.70 1811.22,1478.98"/>
    </edge>
    <edge id=":1369529315_3" function="internal">
        <lane id=":1369529315_3_0" index="0" disallow="tram rail_urban rail rail_electric rail_fast ship container cable_car subway aircraft wheelchair scooter drone" speed="6.45" length="9.03" shape="1810.92,1467.70 1810.67,1470.17 1809.68,1471.94 1807.96,1473.03 1805.51,1473.42"/>
    </edge>
    <edge id=":1369529327_0" function="internal">
        <lane id=":1369529327_0_0" index="0" disallow="tram rail_urban rail rail_electric rail_fast ship container cable_car subway aircraft wheelchair scooter drone" speed="6.58" length="8.79" shape="1900.86,1314.16 1900.43,1311.86 1899.34,1310.20 1897.60,1309.17 1895.19,1308.77"/>
    </edge>
    <edge id=":1369529327_1" function="internal">
        <lane id=":1369529327_1_0" index="0" disallow="tram rail_urban rail rail_electric rail_fast ship container cable_car subway aircraft wheelchair scooter drone" speed="13.89" length="10.70" shape="1900.86,1314.16 1900.40,1303.47"/>
    </edge>
    <edge id=":1369529331_0" function="internal">
        <lane id=":1369529331_0_0" index="0" disallow="tram rail_urban rail rail_electric rail_fast ship container cable_car subway aircraft wheelchair scooter drone" speed="13.89" length="14.42" shape="1717.74,1298.17 1703.35,1297.17"/>
    </edge>
    <edge id=":1369529331_1" function="internal">
        <lane id=":1369529331_1_0" index="0" disallow="tram rail_urban rail rail_electric rail_fast ship container cable_car subway aircraft wheelchair scooter drone" speed="7.28" length="10.72" shape="1717.74,1298.17 1714.57,1297.53 1712.31,1296.27 1710.94,1294.37 1710.48,1291.86"/>
    </edge>
    <edge id=":1369529331_2" function="internal">
        <lane id=":1369529331_2_0" index="0" disallow="tram rail_urban rail rail_electric rail_fast ship container cable_car subway aircraft wheelchair scooter drone" speed="6.55" length="9.13" shape="1708.67,1303.18 1708.43,1300.65 1707.46,1298.81 1705.77,1297.65 1703.35,1297.17"/>
    </edge>
    <edge id=":1369529331_3" function="internal">
        <lane id=":1369529331_3_0" index="0" disallow="tram rail_urban rail rail_electric rail_fast ship container cable_car subway aircraft wheelchair scooter drone" speed="13.89" length="11.58" shape="1711.87,1303.31 1711.76,1299.79 1711.27,1297.30 1710.74,1294.94 1710.48,1291.86"/>
    </edge>
    <edge id=":1369529333_0" function="internal">
        <lane id=":1369529333_0_0" index="0" disallow="tram rail_urban rail rail_electric rail_fast ship container cable_car subway aircraft wheelchair scooter drone" speed="7.28" length="10.12" shape="1696.57,1385.73 1699.42,1385.51 1701.62,1384.55 1703.17,1382.87 1704.08,1380.45"/>
    </edge>
    <edge id=":1369529333_1" function="internal">
        <lane id=":1369529333_1_0" index="0" disallow="tram rail_urban rail rail_electric rail_fast ship container cable_car subway aircraft wheelchair scooter drone" speed="27.78" length="14.68" shape="1696.57,1385.73 1711.33,1386.62"/>
        <lane id=":1369529333_1_1" index="1" disallow="tram rail_urban rail rail_electric rail_fast ship container cable_car subway aircraft wheelchair scooter drone" speed="27.78" length="14.68" shape="1696.43,1388.93 1711.09,1389.81"/>
        <lane id=":1369529333_1_2" index="2" disallow="tram rail_urban rail rail_electric rail_fast ship container cable_car subway aircraft wheelchair scooter drone" speed="27.78" length="14.68" shape="1696.29,1392.13 1710.84,1393.01"/>
    </edge>
    <edge id=":1369529333_4" function="internal">
        <lane id=":1369529333_4_0" index="0" disallow="tram rail_urban rail rail_electric rail_fast ship container cable_car subway aircraft wheelchair scooter drone" speed="13.89" length="17.44" shape="1700.46,1397.52 1704.08,1380.45"/>
        <lane id=":1369529333_4_1" index="1" disallow="tram rail_urban rail rail_electric rail_fast ship container cable_car subway aircraft wheelchair scooter drone" speed="13.89" length="17.44" shape="1703.59,1398.18 1707.21,1381.12"/>
    </edge>
    <edge id=":1369529333_6" function="internal">
        <lane id=":1369529333_6_0" index="0" disallow="tram rail_urban rail rail_electric rail_fast ship container cable_car subway aircraft wheelchair scooter drone" speed="7.88" length="12.33" shape="1703.59,1398.18 1704.76,1394.36 1706.40,1391.69 1708.51,1390.18 1711.09,1389.81"/>
        <lane id=":1369529333_6_1" index="1" disallow="tram rail_urban rail rail_electric rail_fast ship container cable_car subway aircraft wheelchair scooter drone" speed="7.11" length="9.89" shape="1703.59,1398.18 1704.50,1395.74 1706.01,1394.07 1708.12,1393.16 1710.84,1393.01"/>
    </edge>
    <edge id=":1369529337_0" function="internal">
        <lane id=":1369529337_0_0" index="0" disallow="tram rail_urban rail rail_electric rail_fast ship container cable_car subway aircraft wheelchair scooter drone" speed="6.54" length="9.06" shape="1701.55,1480.71 1701.13,1478.26 1700.03,1476.52 1698.26,1475.50 1695.81,1475.19"/>
    </edge>
    <edge id=":1369529337_1" function="internal">
        <lane id=":1369529337_1_0" index="0" disallow="tram rail_urban rail rail_electric rail_fast ship container cable_car subway aircraft wheelchair scooter drone" speed="13.89" length="11.20" shape="1701.55,1480.71 1701.20,1469.52"/>
        <lane id=":1369529337_1_1" index="1" disallow="tram rail_urban rail rail_electric rail_fast ship container cable_car subway aircraft wheelchair scooter drone" speed="13.89" length="11.20" shape="1704.75,1480.61 1704.40,1469.42"/>
    </edge>
    <edge id=":1369529337_3" function="internal">
        <lane id=":1369529337_3_0" index="0" disallow="tram rail_urban rail rail_electric rail_fast ship container cable_car subway aircraft wheelchair scooter drone" speed="13.89" length="14.35" shape="1710.16,1474.95 1695.81,1475.19"/>
    </edge>
    <edge id=":1369529337_4" function="internal">
        <lane id=":1369529337_4_0" index="0" disallow="tram rail_urban rail rail_electric rail_fast ship container cable_car subway aircraft wheelchair scooter drone" speed="6.56" length="9.07" shape="1710.16,1474.95 1707.70,1474.63 1705.93,1473.61 1704.83,1471.87 1704.40,1469.42"/>
    </edge>
    <edge id=":1369529345_0" function="internal">
        <lane id=":1369529345_0_0" index="0" disallow="tram rail_urban rail rail_electric rail_fast ship container cable_car subway aircraft wheelchair scooter drone" speed="13.89" length="11.35" shape="1710.07,1226.69 1709.83,1215.34"/>
    </edge>
    <edge id=":1369529345_1" function="internal">
        <lane id=":1369529345_1_0" index="0" disallow="tram rail_urban rail rail_electric rail_fast ship container cable_car subway aircraft wheelchair scooter drone" speed="6.45" length="9.03" shape="1710.07,1226.69 1710.41,1224.23 1711.46,1222.49 1713.21,1221.46 1715.68,1221.15"/>
    </edge>
    <edge id=":1369529345_2" function="internal">
        <lane id=":1369529345_2_0" index="0" disallow="tram rail_urban rail rail_electric rail_fast ship container cable_car subway aircraft wheelchair scooter drone" speed="6.37" length="9.04" shape="1704.33,1220.88 1706.82,1220.60 1708.56,1219.58 1709.56,1217.83 1709.83,1215.34"/>
    </edge>
    <edge id=":1369529345_3" function="internal">
        <lane id=":1369529345_3_0" index="0" disallow="tram rail_urban rail rail_electric rail_fast ship container cable_car subway aircraft wheelchair scooter drone" speed="13.89" length="11.35" shape="1704.33,1220.88 1715.68,1221.15"/>
    </edge>
    <edge id=":1394290418_0" function="internal">
        <lane id=":1394290418_0_0" index="0" disallow="tram rail_urban rail rail_electric rail_fast ship container cable_car subway aircraft wheelchair scooter drone" speed="6.93" length="9.69" shape="1707.40,1149.40 1706.91,1147.02 1705.66,1145.28 1703.65,1144.17 1700.87,1143.69"/>
        <lane id=":1394290418_0_1" index="1" disallow="tram rail_urban rail rail_electric rail_fast ship container cable_car subway aircraft wheelchair scooter drone" speed="7.70" length="12.16" shape="1707.40,1149.40 1706.88,1145.62 1705.65,1142.88 1703.70,1141.17 1701.03,1140.49"/>
    </edge>
    <edge id=":1394290418_2" function="internal">
        <lane id=":1394290418_2_0" index="0" disallow="tram rail_urban rail rail_electric rail_fast ship container cable_car subway aircraft wheelchair scooter drone" speed="13.89" length="20.46" shape="1707.40,1149.40 1706.52,1128.96"/>
    </edge>
    <edge id=":1394290418_3" function="internal">
        <lane id=":1394290418_3_0" index="0" disallow="tram rail_urban rail rail_electric rail_fast ship container cable_car subway aircraft wheelchair scooter drone" speed="27.78" length="11.68" shape="1712.58,1144.23 1700.87,1143.69"/>
        <lane id=":1394290418_3_1" index="1" disallow="tram rail_urban rail rail_electric rail_fast ship container cable_car subway aircraft wheelchair scooter drone" speed="27.78" length="11.68" shape="1712.72,1141.04 1701.03,1140.49"/>
        <lane id=":1394290418_3_2" index="2" disallow="tram rail_urban rail rail_electric rail_fast ship container cable_car subway aircraft wheelchair scooter drone" speed="27.78" length="11.68" shape="1712.85,1137.84 1701.20,1137.30"/>
        <lane id=":1394290418_3_3" index="3" disallow="tram rail_urban rail rail_electric rail_fast ship container cable_car subway aircraft wheelchair scooter drone" speed="27.78" length="11.68" shape="1712.98,1134.64 1701.36,1134.10"/>
    </edge>
    <edge id=":1394290418_7" function="internal">
        <lane id=":1394290418_7_0" index="0" disallow="tram rail_urban rail rail_electric rail_fast ship container cable_car subway aircraft wheelchair scooter drone" speed="6.91" length="9.62" shape="1712.98,1134.64 1710.25,1134.19 1708.27,1133.09 1707.02,1131.35 1706.52,1128.96"/>
    </edge>
    <edge id=":1430300047_0" function="internal">
        <lane id=":1430300047_0_0" index="0" disallow="tram rail_urban rail rail_electric rail_fast ship container cable_car subway aircraft wheelchair scooter drone" speed="6.23" length="9.05" shape="1592.88,1138.09 1590.36,1138.32 1588.63,1139.32 1587.69,1141.08 1587.55,1143.61"/>
    </edge>
    <edge id=":1430300047_1" function="internal">
        <lane id=":1430300047_1_0" index="0" disallow="tram rail_urban rail rail_electric rail_fast ship container cable_car subway aircraft wheelchair scooter drone" speed="27.78" length="12.64" shape="1592.88,1138.09 1580.25,1137.44"/>
        <lane id=":1430300047_1_1" index="1" disallow="tram rail_urban rail rail_electric rail_fast ship container cable_car subway aircraft wheelchair scooter drone" speed="27.78" length="12.64" shape="1593.04,1134.90 1580.42,1134.24"/>
        <lane id=":1430300047_1_2" index="2" disallow="tram rail_urban rail rail_electric rail_fast ship container cable_car subway aircraft wheelchair scooter drone" speed="27.78" length="12.64" shape="1593.21,1131.70 1580.58,1131.04"/>
        <lane id=":1430300047_1_3" index="3" disallow="tram rail_urban rail rail_electric rail_fast ship container cable_car subway aircraft wheelchair scooter drone" speed="27.78" length="12.64" shape="1593.37,1128.50 1580.75,1127.85"/>
    </edge>
    <edge id=":1430300047_5" function="internal">
        <lane id=":1430300047_5_0" index="0" disallow="tram rail_urban rail rail_electric rail_fast ship container cable_car subway aircraft wheelchair scooter drone" speed="13.89" length="21.23" shape="1586.30,1122.41 1587.55,1143.61"/>
    </edge>
    <edge id=":1430300047_6" function="internal">
        <lane id=":1430300047_6_0" index="0" disallow="tram rail_urban rail rail_electric rail_fast ship container cable_car subway aircraft wheelchair scooter drone" speed="7.17" length="11.88" shape="1586.30,1122.41 1586.05,1126.31 1585.01,1129.04 1583.19,1130.62 1580.58,1131.04"/>
        <lane id=":1430300047_6_1" index="1" disallow="tram rail_urban rail rail_electric rail_fast ship container cable_car subway aircraft wheelchair scooter drone" speed="6.34" length="9.04" shape="1586.30,1122.41 1586.02,1124.90 1585.00,1126.64 1583.24,1127.62 1580.75,1127.85"/>
    </edge>
    <edge id=":1459071594_0" function="internal">
        <lane id=":1459071594_0_0" index="0" disallow="tram rail_urban rail rail_electric rail_fast ship container cable_car subway aircraft wheelchair scooter drone" speed="13.89" length="11.48" shape="1896.98,1231.92 1896.45,1220.45"/>
    </edge>
    <edge id=":1459071594_1" function="internal">
        <lane id=":1459071594_1_0" index="0" disallow="tram rail_urban rail rail_electric rail_fast ship container cable_car subway aircraft wheelchair scooter drone" speed="6.33" length="9.04" shape="1896.98,1231.92 1897.22,1229.42 1898.21,1227.67 1899.96,1226.66 1902.45,1226.40"/>
    </edge>
    <edge id=":1459071594_2" function="internal">
        <lane id=":1459071594_2_0" index="0" disallow="tram rail_urban rail rail_electric rail_fast ship container cable_car subway aircraft wheelchair scooter drone" speed="6.33" length="9.04" shape="1890.98,1225.97 1893.47,1225.70 1895.21,1224.69 1896.20,1222.94 1896.45,1220.45"/>
    </edge>
    <edge id=":1459071594_3" function="internal">
        <lane id=":1459071594_3_0" index="0" disallow="tram rail_urban rail rail_electric rail_fast ship container cable_car subway aircraft wheelchair scooter drone" speed="13.89" length="11.48" shape="1890.98,1225.97 1902.45,1226.40"/>
    </edge>
    <edge id=":1767721271_0" function="internal">
        <lane id=":1767721271_0_0" index="0" disallow="tram rail_urban rail rail_electric rail_fast ship container cable_car subway aircraft wheelchair scooter drone" speed="6.68" length="8.93" shape="1593.71,1213.84 1594.26,1216.22 1595.41,1217.92 1597.17,1218.94 1599.53,1219.28"/>
    </edge>
    <edge id=":1767721271_1" function="internal">
        <lane id=":1767721271_1_0" index="0" disallow="tram rail_urban rail rail_electric rail_fast ship container cable_car subway aircraft wheelchair scooter drone" speed="13.89" length="10.81" shape="1593.71,1213.84 1594.46,1224.62"/>