<?xml version="1.0" encoding="UTF-8"?>

<!-- generated on 2025-04-06 18:32:32 by Eclipse SUMO netedit Version 1.21.0
<neteditConfiguration xmlns:xsi="http://www.w3.org/2001/XMLSchema-instance" xsi:noNamespaceSchemaLocation="http://sumo.dlr.de/xsd/neteditConfiguration.xsd">

    <input>
        <sumo-net-file value="C:\Users\Xih12\Downloads\mapachido.net.xml"/>
    </input>

    <output>
        <output-file value="C:\Users\Xih12\Downloads\mapachido.net.xml"/>
    </output>

    <processing>
        <geometry.min-radius.fix.railways value="false"/>
        <geometry.max-grade.fix value="false"/>
        <offset.disable-normalization value="true"/>
        <lefthand value="0"/>
    </processing>

    <junctions>
        <no-turnarounds value="true"/>
        <junctions.corner-detail value="5"/>
        <junctions.limit-turn-speed value="5.50"/>
        <rectangular-lane-cut value="0"/>
    </junctions>

    <pedestrian>
        <walkingareas value="0"/>
    </pedestrian>

</neteditConfiguration>
-->

<net version="1.20" junctionCornerDetail="5" limitTurnSpeed="5.50" xmlns:xsi="http://www.w3.org/2001/XMLSchema-instance" xsi:noNamespaceSchemaLocation="http://sumo.dlr.de/xsd/net_file.xsd">

    <location netOffset="-669913.25,-2285910.96" convBoundary="1282.92,1040.85,2311.22,1553.21" origBoundary="-103.385786,20.659836,-103.276560,20.711113" projParameter="+proj=utm +zone=13 +ellps=WGS84 +datum=WGS84 +units=m +no_defs"/>

    <type id="highway.primary" priority="12" numLanes="2" speed="27.78" disallow="tram rail_urban rail rail_electric rail_fast ship container cable_car subway aircraft wheelchair scooter drone" oneway="0"/>
    <type id="highway.residential" priority="3" numLanes="1" speed="13.89" disallow="tram rail_urban rail rail_electric rail_fast ship container cable_car subway aircraft wheelchair scooter drone" oneway="0"/>
    <type id="highway.secondary" priority="11" numLanes="1" speed="27.78" disallow="tram rail_urban rail rail_electric rail_fast ship container cable_car subway aircraft wheelchair scooter drone" oneway="0"/>

    <edge id=":1224435523_0" function="internal">
        <lane id=":1224435523_0_0" index="0" disallow="tram rail_urban rail rail_electric rail_fast ship container cable_car subway aircraft wheelchair scooter drone" speed="7.02" length="10.33" shape="1449.08,1292.91 1448.62,1290.54 1447.25,1288.81 1444.99,1287.72 1441.82,1287.26"/>
    </edge>
    <edge id=":1224435523_1" function="internal">
        <lane id=":1224435523_1_0" index="0" disallow="tram rail_urban rail rail_electric rail_fast ship container cable_car subway aircraft wheelchair scooter drone" speed="27.78" length="14.27" shape="1449.08,1292.91 1448.81,1288.70 1448.25,1285.84 1447.68,1282.98 1447.41,1278.77"/>
        <lane id=":1224435523_1_1" index="1" disallow="tram rail_urban rail rail_electric rail_fast ship container cable_car subway aircraft wheelchair scooter drone" speed="27.78" length="14.27" shape="1452.28,1292.89 1452.01,1288.68 1451.45,1285.82 1450.88,1282.96 1450.61,1278.75"/>
        <lane id=":1224435523_1_2" index="2" disallow="tram rail_urban rail rail_electric rail_fast ship container cable_car subway aircraft wheelchair scooter drone" speed="27.78" length="14.27" shape="1455.48,1292.88 1455.21,1288.67 1454.65,1285.81 1454.08,1282.95 1453.81,1278.73"/>
        <lane id=":1224435523_1_3" index="3" disallow="tram rail_urban rail rail_electric rail_fast ship container cable_car subway aircraft wheelchair scooter drone" speed="27.78" length="14.27" shape="1455.48,1292.88 1455.71,1288.66 1456.25,1285.80 1456.78,1282.93 1457.01,1278.72"/>
    </edge>
    <edge id=":1224435523_5" function="internal">
        <lane id=":1224435523_5_0" index="0" disallow="tram rail_urban rail rail_electric rail_fast ship container cable_car subway aircraft wheelchair scooter drone" speed="13.89" length="20.18" shape="1461.99,1286.36 1441.82,1287.26"/>
        <lane id=":1224435523_5_1" index="1" disallow="tram rail_urban rail rail_electric rail_fast ship container cable_car subway aircraft wheelchair scooter drone" speed="13.89" length="20.18" shape="1461.99,1286.36 1441.94,1284.07"/>
    </edge>
    <edge id=":1224435523_7" function="internal">
        <lane id=":1224435523_7_0" index="0" disallow="tram rail_urban rail rail_electric rail_fast ship container cable_car subway aircraft wheelchair scooter drone" speed="7.68" length="12.64" shape="1461.99,1286.36 1458.42,1285.79 1455.87,1284.32 1454.34,1281.97 1453.81,1278.73"/>
        <lane id=":1224435523_7_1" index="1" disallow="tram rail_urban rail rail_electric rail_fast ship container cable_car subway aircraft wheelchair scooter drone" speed="6.96" length="10.20" shape="1461.99,1286.36 1459.82,1285.83 1458.28,1284.37 1457.34,1282.00 1457.01,1278.72"/>
    </edge>
    <edge id=":1224435528_0" function="internal">
        <lane id=":1224435528_0_0" index="0" disallow="tram rail_urban rail rail_electric rail_fast ship container cable_car subway aircraft wheelchair scooter drone" speed="6.43" length="9.03" shape="1603.48,1292.35 1601.00,1292.59 1599.23,1293.56 1598.14,1295.28 1597.76,1297.74"/>
    </edge>
    <edge id=":1224435528_1" function="internal">
        <lane id=":1224435528_1_0" index="0" disallow="tram rail_urban rail rail_electric rail_fast ship container cable_car subway aircraft wheelchair scooter drone" speed="13.89" length="11.41" shape="1603.48,1292.35 1592.08,1291.83"/>
    </edge>
    <edge id=":1224435528_2" function="internal">
        <lane id=":1224435528_2_0" index="0" disallow="tram rail_urban rail rail_electric rail_fast ship container cable_car subway aircraft wheelchair scooter drone" speed="13.89" length="11.41" shape="1597.54,1286.33 1597.76,1297.74"/>
    </edge>
    <edge id=":1224435528_3" function="internal">
        <lane id=":1224435528_3_0" index="0" disallow="tram rail_urban rail rail_electric rail_fast ship container cable_car subway aircraft wheelchair scooter drone" speed="6.31" length="9.04" shape="1597.54,1286.33 1597.31,1288.83 1596.32,1290.58 1594.58,1291.58 1592.08,1291.83"/>
    </edge>
    <edge id=":1224744760_0" function="internal">
        <lane id=":1224744760_0_0" index="0" disallow="tram rail_urban rail rail_electric rail_fast ship container cable_car subway aircraft wheelchair scooter drone" speed="6.55" length="9.11" shape="1472.83,1209.75 1473.13,1212.22 1474.15,1214.01 1475.89,1215.12 1478.36,1215.55"/>
    </edge>
    <edge id=":1224744760_1" function="internal">
        <lane id=":1224744760_1_0" index="0" disallow="tram rail_urban rail rail_electric rail_fast ship container cable_car subway aircraft wheelchair scooter drone" speed="27.78" length="11.38" shape="1472.83,1209.75 1472.80,1221.02"/>
        <lane id=":1224744760_1_1" index="1" disallow="tram rail_urban rail rail_electric rail_fast ship container cable_car subway aircraft wheelchair scooter drone" speed="27.78" length="11.38" shape="1469.63,1209.68 1469.60,1221.07"/>
        <lane id=":1224744760_1_2" index="2" disallow="tram rail_urban rail rail_electric rail_fast ship container cable_car subway aircraft wheelchair scooter drone" speed="27.78" length="11.38" shape="1466.43,1209.61 1466.40,1221.12"/>
    </edge>
    <edge id=":1224744760_4" function="internal">
        <lane id=":1224744760_4_0" index="0" disallow="tram rail_urban rail rail_electric rail_fast ship container cable_car subway aircraft wheelchair scooter drone" speed="13.89" length="16.72" shape="1461.65,1215.07 1478.36,1215.55"/>
    </edge>
    <edge id=":1224744760_5" function="internal">
        <lane id=":1224744760_5_0" index="0" disallow="tram rail_urban rail rail_electric rail_fast ship container cable_car subway aircraft wheelchair scooter drone" speed="7.28" length="11.19" shape="1461.65,1215.07 1465.09,1215.52 1467.57,1216.67 1469.07,1218.52 1469.60,1221.07"/>
        <lane id=":1224744760_5_1" index="1" disallow="tram rail_urban rail rail_electric rail_fast ship container cable_car subway aircraft wheelchair scooter drone" speed="6.48" length="8.66" shape="1461.65,1215.07 1463.69,1215.49 1465.17,1216.64 1466.07,1218.52 1466.40,1221.12"/>
    </edge>
    <edge id=":1224744792_0" function="internal">
        <lane id=":1224744792_0_0" index="0" disallow="tram rail_urban rail rail_electric rail_fast ship container cable_car subway aircraft wheelchair scooter drone" speed="6.66" length="8.84" shape="1805.38,1217.43 1805.84,1219.79 1806.93,1221.50 1808.65,1222.57 1810.99,1222.99"/>
    </edge>
    <edge id=":1224744792_1" function="internal">
        <lane id=":1224744792_1_0" index="0" disallow="tram rail_urban rail rail_electric rail_fast ship container cable_car subway aircraft wheelchair scooter drone" speed="13.89" length="10.70" shape="1805.38,1217.43 1805.72,1228.12"/>
    </edge>
    <edge id=":1224744792_2" function="internal">
        <lane id=":1224744792_2_0" index="0" disallow="tram rail_urban rail rail_electric rail_fast ship container cable_car subway aircraft wheelchair scooter drone" speed="13.89" length="10.70" shape="1800.30,1222.69 1810.99,1222.99"/>
    </edge>
    <edge id=":1224744792_3" function="internal">
        <lane id=":1224744792_3_0" index="0" disallow="tram rail_urban rail rail_electric rail_fast ship container cable_car subway aircraft wheelchair scooter drone" speed="6.46" length="8.69" shape="1800.30,1222.69 1802.65,1223.07 1804.34,1224.10 1805.36,1225.78 1805.72,1228.12"/>
    </edge>
    <edge id=":1224744820_0" function="internal">
        <lane id=":1224744820_0_0" index="0" disallow="tram rail_urban rail rail_electric rail_fast ship container cable_car subway aircraft wheelchair scooter drone" speed="27.78" length="14.40" shape="1447.14,1221.83 1447.08,1207.42"/>
        <lane id=":1224744820_0_1" index="1" disallow="tram rail_urban rail rail_electric rail_fast ship container cable_car subway aircraft wheelchair scooter drone" speed="27.78" length="14.40" shape="1450.34,1221.81 1450.28,1207.41"/>
        <lane id=":1224744820_0_2" index="2" disallow="tram rail_urban rail rail_electric rail_fast ship container cable_car subway aircraft wheelchair scooter drone" speed="27.78" length="14.40" shape="1453.54,1221.80 1453.48,1207.39"/>
        <lane id=":1224744820_0_3" index="3" disallow="tram rail_urban rail rail_electric rail_fast ship container cable_car subway aircraft wheelchair scooter drone" speed="27.78" length="14.40" shape="1456.74,1221.78 1456.68,1207.38"/>
    </edge>
    <edge id=":1224744820_4" function="internal">
        <lane id=":1224744820_4_0" index="0" disallow="tram rail_urban rail rail_electric rail_fast ship container cable_car subway aircraft wheelchair scooter drone" speed="6.44" length="9.04" shape="1441.45,1212.92 1443.92,1212.63 1445.68,1211.62 1446.73,1209.89 1447.08,1207.42"/>
        <lane id=":1224744820_4_1" index="1" disallow="tram rail_urban rail rail_electric rail_fast ship container cable_car subway aircraft wheelchair scooter drone" speed="7.26" length="11.78" shape="1441.45,1212.92 1445.32,1212.67 1448.08,1211.66 1449.73,1209.91 1450.28,1207.41"/>
    </edge>
    <edge id=":1224744820_6" function="internal">
        <lane id=":1224744820_6_0" index="0" disallow="tram rail_urban rail rail_electric rail_fast ship container cable_car subway aircraft wheelchair scooter drone" speed="13.89" length="20.11" shape="1441.36,1216.12 1461.45,1215.06"/>
    </edge>
    <edge id=":1287228751_0" function="internal">
        <lane id=":1287228751_0_0" index="0" disallow="tram rail_urban rail rail_electric rail_fast ship container cable_car subway aircraft wheelchair scooter drone" speed="6.81" length="9.77" shape="1596.82,1374.34 1597.19,1376.78 1598.38,1378.55 1600.40,1379.67 1603.23,1380.14"/>
        <lane id=":1287228751_0_1" index="1" disallow="tram rail_urban rail rail_electric rail_fast ship container cable_car subway aircraft wheelchair scooter drone" speed="7.58" length="12.34" shape="1596.82,1374.34 1597.17,1378.18 1598.33,1380.95 1600.31,1382.67 1603.10,1383.33"/>
    </edge>
    <edge id=":1287228751_2" function="internal">
        <lane id=":1287228751_2_0" index="0" disallow="tram rail_urban rail rail_electric rail_fast ship container cable_car subway aircraft wheelchair scooter drone" speed="13.89" length="20.87" shape="1596.82,1374.34 1596.85,1379.01 1597.03,1384.77 1597.31,1390.53 1597.63,1395.19"/>
    </edge>
    <edge id=":1287228751_3" function="internal">
        <lane id=":1287228751_3_0" index="0" disallow="tram rail_urban rail rail_electric rail_fast ship container cable_car subway aircraft wheelchair scooter drone" speed="27.78" length="11.98" shape="1591.22,1379.68 1603.23,1380.14"/>
        <lane id=":1287228751_3_1" index="1" disallow="tram rail_urban rail rail_electric rail_fast ship container cable_car subway aircraft wheelchair scooter drone" speed="27.78" length="11.98" shape="1591.11,1382.88 1603.10,1383.33"/>
        <lane id=":1287228751_3_2" index="2" disallow="tram rail_urban rail rail_electric rail_fast ship container cable_car subway aircraft wheelchair scooter drone" speed="27.78" length="11.98" shape="1591.00,1386.08 1602.96,1386.53"/>
        <lane id=":1287228751_3_3" index="3" disallow="tram rail_urban rail rail_electric rail_fast ship container cable_car subway aircraft wheelchair scooter drone" speed="27.78" length="11.98" shape="1590.89,1389.27 1602.83,1389.73"/>
    </edge>
    <edge id=":1287228751_7" function="internal">
        <lane id=":1287228751_7_0" index="0" disallow="tram rail_urban rail rail_electric rail_fast ship container cable_car subway aircraft wheelchair scooter drone" speed="7.12" length="9.96" shape="1590.89,1389.27 1593.65,1389.72 1595.69,1390.86 1597.02,1392.68 1597.63,1395.19"/>
    </edge>
    <edge id=":130153815_0" function="internal">
        <lane id=":130153815_0_0" index="0" disallow="tram rail_urban rail rail_electric rail_fast ship container cable_car subway aircraft wheelchair scooter drone" speed="6.99" length="10.22" shape="1474.29,1369.44 1474.72,1371.98 1475.99,1373.84 1478.09,1375.01 1481.04,1375.48"/>
        <lane id=":130153815_0_1" index="1" disallow="tram rail_urban rail rail_electric rail_fast ship container cable_car subway aircraft wheelchair scooter drone" speed="7.74" length="12.77" shape="1474.29,1369.44 1474.71,1373.38 1475.96,1376.24 1478.03,1378.01 1480.92,1378.68"/>
    </edge>
    <edge id=":130153815_2" function="internal">
        <lane id=":130153815_2_0" index="0" disallow="tram rail_urban rail rail_electric rail_fast ship container cable_car subway aircraft wheelchair scooter drone" speed="27.78" length="21.53" shape="1474.29,1369.44 1474.34,1375.71 1474.50,1380.01 1474.91,1384.29 1475.66,1390.52"/>
        <lane id=":130153815_2_1" index="1" disallow="tram rail_urban rail rail_electric rail_fast ship container cable_car subway aircraft wheelchair scooter drone" speed="27.78" length="21.53" shape="1471.09,1369.45 1471.14,1375.84 1471.31,1380.21 1471.72,1384.57 1472.48,1390.91"/>
        <lane id=":130153815_2_2" index="2" disallow="tram rail_urban rail rail_electric rail_fast ship container cable_car subway aircraft wheelchair scooter drone" speed="27.78" length="21.53" shape="1467.89,1369.47 1467.94,1375.97 1468.11,1380.42 1468.53,1384.85 1469.31,1391.30"/>
    </edge>
    <edge id=":130153815_5" function="internal">
        <lane id=":130153815_5_0" index="0" disallow="tram rail_urban rail rail_electric rail_fast ship container cable_car subway aircraft wheelchair scooter drone" speed="27.78" length="18.64" shape="1462.41,1374.75 1481.04,1375.48"/>
        <lane id=":130153815_5_1" index="1" disallow="tram rail_urban rail rail_electric rail_fast ship container cable_car subway aircraft wheelchair scooter drone" speed="27.78" length="18.64" shape="1462.29,1377.95 1480.92,1378.68"/>
        <lane id=":130153815_5_2" index="2" disallow="tram rail_urban rail rail_electric rail_fast ship container cable_car subway aircraft wheelchair scooter drone" speed="27.78" length="18.64" shape="1462.16,1381.15 1480.79,1381.88"/>
        <lane id=":130153815_5_3" index="3" disallow="tram rail_urban rail rail_electric rail_fast ship container cable_car subway aircraft wheelchair scooter drone" speed="27.78" length="18.64" shape="1462.04,1384.35 1480.67,1385.08"/>
    </edge>
    <edge id=":130153815_9" function="internal">
        <lane id=":130153815_9_0" index="0" disallow="tram rail_urban rail rail_electric rail_fast ship container cable_car subway aircraft wheelchair scooter drone" speed="8.31" length="13.49" shape="1462.04,1384.35 1466.32,1384.90 1469.49,1386.18 1471.55,1388.18 1472.48,1390.91"/>
        <lane id=":130153815_9_1" index="1" disallow="tram rail_urban rail rail_electric rail_fast ship container cable_car subway aircraft wheelchair scooter drone" speed="7.59" length="11.11" shape="1462.04,1384.35 1464.91,1384.88 1467.08,1386.21 1468.54,1388.35 1469.31,1391.30"/>
    </edge>
    <edge id=":1341846736_0" function="internal">
        <lane id=":1341846736_0_0" index="0" disallow="tram rail_urban rail rail_electric rail_fast ship container cable_car subway aircraft wheelchair scooter drone" speed="7.31" length="11.74" shape="1989.78,1140.47 1989.30,1144.31 1988.16,1147.02 1986.34,1148.60 1983.86,1149.05"/>
        <lane id=":1341846736_0_1" index="1" disallow="tram rail_urban rail rail_electric rail_fast ship container cable_car subway aircraft wheelchair scooter drone" speed="6.49" length="9.03" shape="1989.78,1140.47 1989.35,1142.91 1988.24,1144.62 1986.45,1145.60 1983.99,1145.85"/>
    </edge>
    <edge id=":1369529293_0" function="internal">
        <lane id=":1369529293_0_0" index="0" disallow="tram rail_urban rail rail_electric rail_fast ship container cable_car subway aircraft wheelchair scooter drone" speed="6.41" length="9.04" shape="1812.16,1306.35 1809.69,1306.63 1807.93,1307.64 1806.90,1309.38 1806.59,1311.86"/>
    </edge>
    <edge id=":1369529293_1" function="internal">
        <lane id=":1369529293_1_0" index="0" disallow="tram rail_urban rail rail_electric rail_fast ship container cable_car subway aircraft wheelchair scooter drone" speed="13.89" length="11.44" shape="1812.16,1306.35 1800.75,1305.66"/>
    </edge>
    <edge id=":1369529293_2" function="internal">
        <lane id=":1369529293_2_0" index="0" disallow="tram rail_urban rail rail_electric rail_fast ship container cable_car subway aircraft wheelchair scooter drone" speed="13.89" length="11.44" shape="1806.43,1300.41 1806.59,1311.86"/>
    </edge>
    <edge id=":1369529293_3" function="internal">
        <lane id=":1369529293_3_0" index="0" disallow="tram rail_urban rail rail_electric rail_fast ship container cable_car subway aircraft wheelchair scooter drone" speed="6.30" length="9.04" shape="1806.43,1300.41 1806.10,1302.90 1805.04,1304.61 1803.26,1305.53 1800.75,1305.66"/>
    </edge>
    <edge id=":1369529309_0" function="internal">
        <lane id=":1369529309_0_0" index="0" disallow="tram rail_urban rail rail_electric rail_fast ship container cable_car subway aircraft wheelchair scooter drone" speed="7.48" length="11.78" shape="1807.84,1381.84 1808.26,1385.64 1809.36,1388.37 1811.15,1390.05 1813.63,1390.67"/>
    </edge>
    <edge id=":1369529309_1" function="internal">
        <lane id=":1369529309_1_0" index="0" disallow="tram rail_urban rail rail_electric rail_fast ship container cable_car subway aircraft wheelchair scooter drone" speed="13.89" length="20.41" shape="1807.84,1381.84 1808.27,1402.24"/>
    </edge>
    <edge id=":1369529309_2" function="internal">
        <lane id=":1369529309_2_0" index="0" disallow="tram rail_urban rail rail_electric rail_fast ship container cable_car subway aircraft wheelchair scooter drone" speed="27.78" length="11.78" shape="1802.48,1387.23 1805.87,1387.77 1808.06,1388.90 1810.25,1390.06 1813.63,1390.67"/>
        <lane id=":1369529309_2_1" index="1" disallow="tram rail_urban rail rail_electric rail_fast ship container cable_car subway aircraft wheelchair scooter drone" speed="27.78" length="11.78" shape="1802.45,1390.43 1805.81,1390.97 1807.99,1392.10 1810.17,1393.26 1813.53,1393.87"/>
    </edge>
    <edge id=":1369529309_4" function="internal">
        <lane id=":1369529309_4_0" index="0" disallow="tram rail_urban rail rail_electric rail_fast ship container cable_car subway aircraft wheelchair scooter drone" speed="6.63" length="9.03" shape="1802.37,1396.83 1804.87,1397.19 1806.69,1398.21 1807.82,1399.90 1808.27,1402.24"/>
    </edge>
    <edge id=":1369529315_0" function="internal">
        <lane id=":1369529315_0_0" index="0" disallow="tram rail_urban rail rail_electric rail_fast ship container cable_car subway aircraft wheelchair scooter drone" speed="6.44" length="9.03" shape="1816.80,1473.44 1814.33,1473.75 1812.58,1474.77 1811.54,1476.52 1811.22,1478.98"/>
    </edge>
    <edge id=":1369529315_1" function="internal">
        <lane id=":1369529315_1_0" index="0" disallow="tram rail_urban rail rail_electric rail_fast ship container cable_car subway aircraft wheelchair scooter drone" speed="13.89" length="11.29" shape="1816.80,1473.44 1805.51,1473.42"/>
    </edge>
    <edge id=":1369529315_2" function="internal">
        <lane id=":1369529315_2_0" index="0" disallow="tram rail_urban rail rail_electric rail_fast ship container cable_car subway aircraft wheelchair scooter drone" speed="13.89" length="11.29" shape="1810.92,1467.69 1811.22,1478.98"/>
    </edge>
    <edge id=":1369529315_3" function="internal">
        <lane id=":1369529315_3_0" index="0" disallow="tram rail_urban rail rail_electric rail_fast ship container cable_car subway aircraft wheelchair scooter drone" speed="6.45" length="9.03" shape="1810.92,1467.69 1810.67,1470.17 1809.68,1471.94 1807.96,1473.03 1805.51,1473.42"/>
    </edge>
    <edge id=":1369529327_0" function="internal">
        <lane id=":1369529327_0_0" index="0" disallow="tram rail_urban rail rail_electric rail_fast ship container cable_car subway aircraft wheelchair scooter drone" speed="6.58" length="8.79" shape="1900.86,1314.16 1900.43,1311.86 1899.34,1310.20 1897.60,1309.17 1895.19,1308.77"/>
    </edge>
    <edge id=":1369529327_1" function="internal">
        <lane id=":1369529327_1_0" index="0" disallow="tram rail_urban rail rail_electric rail_fast ship container cable_car subway aircraft wheelchair scooter drone" speed="13.89" length="10.70" shape="1900.86,1314.16 1900.40,1303.47"/>
    </edge>
    <edge id=":1369529331_0" function="internal">
        <lane id=":1369529331_0_0" index="0" disallow="tram rail_urban rail rail_electric rail_fast ship container cable_car subway aircraft wheelchair scooter drone" speed="13.89" length="14.42" shape="1717.74,1298.17 1703.35,1297.17"/>
    </edge>
    <edge id=":1369529331_1" function="internal">
        <lane id=":1369529331_1_0" index="0" disallow="tram rail_urban rail rail_electric rail_fast ship container cable_car subway aircraft wheelchair scooter drone" speed="7.28" length="10.72" shape="1717.74,1298.17 1714.57,1297.53 1712.31,1296.27 1710.94,1294.37 1710.48,1291.86"/>
    </edge>
    <edge id=":1369529331_2" function="internal">
        <lane id=":1369529331_2_0" index="0" disallow="tram rail_urban rail rail_electric rail_fast ship container cable_car subway aircraft wheelchair scooter drone" speed="6.55" length="9.13" shape="1708.67,1303.18 1708.43,1300.65 1707.46,1298.81 1705.77,1297.65 1703.35,1297.17"/>
    </edge>
    <edge id=":1369529331_3" function="internal">
        <lane id=":1369529331_3_0" index="0" disallow="tram rail_urban rail rail_electric rail_fast ship container cable_car subway aircraft wheelchair scooter drone" speed="13.89" length="11.58" shape="1711.87,1303.31 1711.76,1299.79 1711.27,1297.30 1710.74,1294.94 1710.48,1291.86"/>
    </edge>
    <edge id=":1369529333_0" function="internal">
        <lane id=":1369529333_0_0" index="0" disallow="tram rail_urban rail rail_electric rail_fast ship container cable_car subway aircraft wheelchair scooter drone" speed="7.35" length="10.83" shape="1696.33,1384.12 1699.54,1383.90 1701.96,1382.93 1703.59,1381.19 1704.43,1378.70"/>
    </edge>
    <edge id=":1369529333_1" function="internal">
        <lane id=":1369529333_1_0" index="0" disallow="tram rail_urban rail rail_electric rail_fast ship container cable_car subway aircraft wheelchair scooter drone" speed="27.78" length="15.49" shape="1696.33,1384.12 1711.77,1384.75"/>
        <lane id=":1369529333_1_1" index="1" disallow="tram rail_urban rail rail_electric rail_fast ship container cable_car subway aircraft wheelchair scooter drone" speed="27.78" length="15.49" shape="1696.19,1387.32 1711.66,1387.94"/>
        <lane id=":1369529333_1_2" index="2" disallow="tram rail_urban rail rail_electric rail_fast ship container cable_car subway aircraft wheelchair scooter drone" speed="27.78" length="15.49" shape="1696.04,1390.51 1711.54,1391.14"/>
        <lane id=":1369529333_1_3" index="3" disallow="tram rail_urban rail rail_electric rail_fast ship container cable_car subway aircraft wheelchair scooter drone" speed="27.78" length="15.49" shape="1695.90,1393.71 1711.42,1394.34"/>
    </edge>
    <edge id=":1369529333_5" function="internal">
        <lane id=":1369529333_5_0" index="0" disallow="tram rail_urban rail rail_electric rail_fast ship container cable_car subway aircraft wheelchair scooter drone" speed="13.89" length="20.92" shape="1700.08,1399.12 1700.84,1393.11 1701.94,1388.87 1703.20,1384.66 1704.43,1378.70"/>
        <lane id=":1369529333_5_1" index="1" disallow="tram rail_urban rail rail_electric rail_fast ship container cable_car subway aircraft wheelchair scooter drone" speed="13.89" length="20.92" shape="1703.24,1399.81 1703.99,1393.79 1705.09,1389.55 1706.34,1385.33 1707.56,1379.37"/>
    </edge>
    <edge id=":1369529333_7" function="internal">
        <lane id=":1369529333_7_0" index="0" disallow="tram rail_urban rail rail_electric rail_fast ship container cable_car subway aircraft wheelchair scooter drone" speed="7.93" length="13.56" shape="1703.24,1399.81 1703.99,1395.91 1705.63,1393.17 1708.14,1391.58 1711.54,1391.14"/>
        <lane id=":1369529333_7_1" index="1" disallow="tram rail_urban rail rail_electric rail_fast ship container cable_car subway aircraft wheelchair scooter drone" speed="7.22" length="11.07" shape="1703.24,1399.81 1703.90,1397.31 1705.49,1395.56 1707.99,1394.57 1711.42,1394.34"/>
    </edge>
    <edge id=":1369529337_0" function="internal">
        <lane id=":1369529337_0_0" index="0" disallow="tram rail_urban rail rail_electric rail_fast ship container cable_car subway aircraft wheelchair scooter drone" speed="6.54" length="9.06" shape="1701.55,1480.71 1701.13,1478.26 1700.03,1476.52 1698.26,1475.50 1695.81,1475.19"/>
    </edge>
    <edge id=":1369529337_1" function="internal">
        <lane id=":1369529337_1_0" index="0" disallow="tram rail_urban rail rail_electric rail_fast ship container cable_car subway aircraft wheelchair scooter drone" speed="13.89" length="11.20" shape="1701.55,1480.71 1701.20,1469.52"/>
        <lane id=":1369529337_1_1" index="1" disallow="tram rail_urban rail rail_electric rail_fast ship container cable_car subway aircraft wheelchair scooter drone" speed="13.89" length="11.20" shape="1704.75,1480.61 1704.40,1469.42"/>
    </edge>
    <edge id=":1369529337_3" function="internal">
        <lane id=":1369529337_3_0" index="0" disallow="tram rail_urban rail rail_electric rail_fast ship container cable_car subway aircraft wheelchair scooter drone" speed="13.89" length="14.35" shape="1710.16,1474.95 1695.81,1475.19"/>
    </edge>
    <edge id=":1369529337_4" function="internal">
        <lane id=":1369529337_4_0" index="0" disallow="tram rail_urban rail rail_electric rail_fast ship container cable_car subway aircraft wheelchair scooter drone" speed="6.56" length="9.07" shape="1710.16,1474.95 1707.70,1474.63 1705.93,1473.61 1704.83,1471.87 1704.40,1469.42"/>
    </edge>
    <edge id=":1369529345_0" function="internal">
        <lane id=":1369529345_0_0" index="0" disallow="tram rail_urban rail rail_electric rail_fast ship container cable_car subway aircraft wheelchair scooter drone" speed="13.89" length="11.35" shape="1710.07,1226.69 1709.83,1215.34"/>
    </edge>
    <edge id=":1369529345_1" function="internal">
        <lane id=":1369529345_1_0" index="0" disallow="tram rail_urban rail rail_electric rail_fast ship container cable_car subway aircraft wheelchair scooter drone" speed="6.45" length="9.03" shape="1710.07,1226.69 1710.41,1224.23 1711.46,1222.49 1713.21,1221.46 1715.68,1221.15"/>
    </edge>
    <edge id=":1369529345_2" function="internal">
        <lane id=":1369529345_2_0" index="0" disallow="tram rail_urban rail rail_electric rail_fast ship container cable_car subway aircraft wheelchair scooter drone" speed="6.37" length="9.04" shape="1704.33,1220.88 1706.82,1220.60 1708.56,1219.58 1709.56,1217.83 1709.83,1215.34"/>
    </edge>
    <edge id=":1369529345_3" function="internal">
        <lane id=":1369529345_3_0" index="0" disallow="tram rail_urban rail rail_electric rail_fast ship container cable_car subway aircraft wheelchair scooter drone" speed="13.89" length="11.35" shape="1704.33,1220.88 1715.68,1221.15"/>
    </edge>
    <edge id=":1394290418_0" function="internal">
        <lane id=":1394290418_0_0" index="0" disallow="tram rail_urban rail rail_electric rail_fast ship container cable_car subway aircraft wheelchair scooter drone" speed="6.93" length="9.69" shape="1707.40,1149.40 1706.91,1147.02 1705.66,1145.28 1703.65,1144.17 1700.87,1143.69"/>
        <lane id=":1394290418_0_1" index="1" disallow="tram rail_urban rail rail_electric rail_fast ship container cable_car subway aircraft wheelchair scooter drone" speed="7.70" length="12.16" shape="1707.40,1149.40 1706.88,1145.62 1705.65,1142.88 1703.70,1141.17 1701.03,1140.49"/>
    </edge>
    <edge id=":1394290418_2" function="internal">