<?xml version="1.0" encoding="UTF-8"?>

<!-- generated on 2025-02-12 09:30:19 by Eclipse SUMO netconvert Version 1.21.0
<netconvertConfiguration xmlns:xsi="http://www.w3.org/2001/XMLSchema-instance" xsi:noNamespaceSchemaLocation="http://sumo.dlr.de/xsd/netconvertConfiguration.xsd">

    <input>
        <node-files value="assets/nodes.nod.xml"/>
        <edge-files value="assets/edges.edg.xml"/>
    </input>

    <output>
        <output-file value="assets/network.net.xml"/>
    </output>

    <tls_building>
        <tls.guess value="true"/>
    </tls_building>

</netconvertConfiguration>
-->

<net version="1.20" junctionCornerDetail="5" limitTurnSpeed="5.50" xmlns:xsi="http://www.w3.org/2001/XMLSchema-instance" xsi:noNamespaceSchemaLocation="http://sumo.dlr.de/xsd/net_file.xsd">

    <location netOffset="0.00,0.00" convBoundary="0.00,0.00,200.00,200.00" origBoundary="0.00,0.00,200.00,200.00" projParameter="!"/>

    <edge id=":A_0" function="internal">
        <lane id=":A_0_0" index="0" speed="3.65" length="4.67" shape="51.60,200.00 50.80,201.20 50.00,201.60 49.20,201.20 48.40,200.00"/>
    </edge>
    <edge id=":B_0" function="internal">
        <lane id=":B_0_0" index="0" speed="3.65" length="4.67" shape="151.60,200.00 150.80,201.20 150.00,201.60 149.20,201.20 148.40,200.00"/>
    </edge>
    <edge id=":C_0" function="internal">
        <lane id=":C_0_0" index="0" speed="3.65" length="4.67" shape="0.00,151.60 -1.20,150.80 -1.60,150.00 -1.20,149.20 0.00,148.40"/>
    </edge>
    <edge id=":D_0" function="internal">
        <lane id=":D_0_0" index="0" speed="6.51" length="9.03" shape="48.40,157.20 48.05,154.75 47.00,153.00 45.25,151.95 42.80,151.60"/>
    </edge>
    <edge id=":D_1" function="internal">
        <lane id=":D_1_0" index="0" speed="10.00" length="14.40" shape="48.40,157.20 48.40,142.80"/>
    </edge>
    <edge id=":D_2" function="internal">
        <lane id=":D_2_0" index="0" speed="8.00" length="4.07" shape="48.40,157.20 48.95,153.35 49.04,153.20"/>
    </edge>
    <edge id=":D_3" function="internal">
        <lane id=":D_3_0" index="0" speed="3.65" length="1.44" shape="48.40,157.20 49.20,156.00"/>
    </edge>
    <edge id=":D_16" function="internal">
        <lane id=":D_16_0" index="0" speed="8.00" length="10.13" shape="49.04,153.20 50.60,150.60 53.35,148.95 57.20,148.40"/>
    </edge>
    <edge id=":D_17" function="internal">
        <lane id=":D_17_0" index="0" speed="3.65" length="3.23" shape="49.20,156.00 50.00,155.60 50.80,156.00 51.60,157.20"/>
    </edge>
    <edge id=":D_4" function="internal">
        <lane id=":D_4_0" index="0" speed="6.51" length="9.03" shape="57.20,151.60 54.75,151.95 53.00,153.00 51.95,154.75 51.60,157.20"/>
    </edge>
    <edge id=":D_5" function="internal">
        <lane id=":D_5_0" index="0" speed="10.00" length="14.40" shape="57.20,151.60 42.80,151.60"/>
    </edge>
    <edge id=":D_6" function="internal">
        <lane id=":D_6_0" index="0" speed="8.00" length="4.07" shape="57.20,151.60 53.35,151.05 53.20,150.96"/>
    </edge>
    <edge id=":D_7" function="internal">
        <lane id=":D_7_0" index="0" speed="3.65" length="1.44" shape="57.20,151.60 56.00,150.80"/>
    </edge>
    <edge id=":D_18" function="internal">
        <lane id=":D_18_0" index="0" speed="8.00" length="10.13" shape="53.20,150.96 50.60,149.40 48.95,146.65 48.40,142.80"/>
    </edge>
    <edge id=":D_19" function="internal">
        <lane id=":D_19_0" index="0" speed="3.65" length="3.23" shape="56.00,150.80 55.60,150.00 56.00,149.20 57.20,148.40"/>
    </edge>
    <edge id=":D_8" function="internal">
        <lane id=":D_8_0" index="0" speed="6.51" length="9.03" shape="51.60,142.80 51.95,145.25 53.00,147.00 54.75,148.05 57.20,148.40"/>
    </edge>
    <edge id=":D_9" function="internal">
        <lane id=":D_9_0" index="0" speed="10.00" length="14.40" shape="51.60,142.80 51.60,157.20"/>
    </edge>
    <edge id=":D_10" function="internal">
        <lane id=":D_10_0" index="0" speed="8.00" length="4.07" shape="51.60,142.80 51.05,146.65 50.96,146.80"/>
    </edge>
    <edge id=":D_11" function="internal">
        <lane id=":D_11_0" index="0" speed="3.65" length="1.44" shape="51.60,142.80 50.80,144.00"/>
    </edge>
    <edge id=":D_20" function="internal">
        <lane id=":D_20_0" index="0" speed="8.00" length="10.13" shape="50.96,146.80 49.40,149.40 46.65,151.05 42.80,151.60"/>
    </edge>
    <edge id=":D_21" function="internal">
        <lane id=":D_21_0" index="0" speed="3.65" length="3.23" shape="50.80,144.00 50.00,144.40 49.20,144.00 48.40,142.80"/>
    </edge>
    <edge id=":D_12" function="internal">
        <lane id=":D_12_0" index="0" speed="6.51" length="9.03" shape="42.80,148.40 45.25,148.05 47.00,147.00 48.05,145.25 48.40,142.80"/>
    </edge>
    <edge id=":D_13" function="internal">
        <lane id=":D_13_0" index="0" speed="10.00" length="14.40" shape="42.80,148.40 57.20,148.40"/>
    </edge>
    <edge id=":D_14" function="internal">
        <lane id=":D_14_0" index="0" speed="8.00" length="4.07" shape="42.80,148.40 46.65,148.95 46.80,149.04"/>
    </edge>
    <edge id=":D_15" function="internal">
        <lane id=":D_15_0" index="0" speed="3.65" length="1.44" shape="42.80,148.40 44.00,149.20"/>
    </edge>
    <edge id=":D_22" function="internal">
        <lane id=":D_22_0" index="0" speed="8.00" length="10.13" shape="46.80,149.04 49.40,150.60 51.05,153.35 51.60,157.20"/>
    </edge>
    <edge id=":D_23" function="internal">
        <lane id=":D_23_0" index="0" speed="3.65" length="3.23" shape="44.00,149.20 44.40,150.00 44.00,150.80 42.80,151.60"/>
    </edge>
    <edge id=":E_0" function="internal">
        <lane id=":E_0_0" index="0" speed="6.51" length="9.03" shape="148.40,157.20 148.05,154.75 147.00,153.00 145.25,151.95 142.80,151.60"/>
    </edge>
    <edge id=":E_1" function="internal">
        <lane id=":E_1_0" index="0" speed="10.00" length="14.40" shape="148.40,157.20 148.40,142.80"/>
    </edge>
    <edge id=":E_2" function="internal">
        <lane id=":E_2_0" index="0" speed="8.00" length="4.07" shape="148.40,157.20 148.95,153.35 149.04,153.20"/>
    </edge>
    <edge id=":E_3" function="internal">
        <lane id=":E_3_0" index="0" speed="3.65" length="1.44" shape="148.40,157.20 149.20,156.00"/>
    </edge>
    <edge id=":E_16" function="internal">
        <lane id=":E_16_0" index="0" speed="8.00" length="10.13" shape="149.04,153.20 150.60,150.60 153.35,148.95 157.20,148.40"/>
    </edge>
    <edge id=":E_17" function="internal">
        <lane id=":E_17_0" index="0" speed="3.65" length="3.23" shape="149.20,156.00 150.00,155.60 150.80,156.00 151.60,157.20"/>
    </edge>
    <edge id=":E_4" function="internal">
        <lane id=":E_4_0" index="0" speed="6.51" length="9.03" shape="157.20,151.60 154.75,151.95 153.00,153.00 151.95,154.75 151.60,157.20"/>
    </edge>
    <edge id=":E_5" function="internal">
        <lane id=":E_5_0" index="0" speed="10.00" length="14.40" shape="157.20,151.60 142.80,151.60"/>
    </edge>
    <edge id=":E_6" function="internal">
        <lane id=":E_6_0" index="0" speed="8.00" length="4.07" shape="157.20,151.60 153.35,151.05 153.20,150.96"/>
    </edge>
    <edge id=":E_7" function="internal">
        <lane id=":E_7_0" index="0" speed="3.65" length="1.44" shape="157.20,151.60 156.00,150.80"/>
    </edge>
    <edge id=":E_18" function="internal">
        <lane id=":E_18_0" index="0" speed="8.00" length="10.13" shape="153.20,150.96 150.60,149.40 148.95,146.65 148.40,142.80"/>
    </edge>
    <edge id=":E_19" function="internal">
        <lane id=":E_19_0" index="0" speed="3.65" length="3.23" shape="156.00,150.80 155.60,150.00 156.00,149.20 157.20,148.40"/>
    </edge>
    <edge id=":E_8" function="internal">
        <lane id=":E_8_0" index="0" speed="6.51" length="9.03" shape="151.60,142.80 151.95,145.25 153.00,147.00 154.75,148.05 157.20,148.40"/>
    </edge>
    <edge id=":E_9" function="internal">
        <lane id=":E_9_0" index="0" speed="10.00" length="14.40" shape="151.60,142.80 151.60,157.20"/>
    </edge>
    <edge id=":E_10" function="internal">
        <lane id=":E_10_0" index="0" speed="8.00" length="4.07" shape="151.60,142.80 151.05,146.65 150.96,146.80"/>
    </edge>
    <edge id=":E_11" function="internal">
        <lane id=":E_11_0" index="0" speed="3.65" length="1.44" shape="151.60,142.80 150.80,144.00"/>
    </edge>
    <edge id=":E_20" function="internal">
        <lane id=":E_20_0" index="0" speed="8.00" length="10.13" shape="150.96,146.80 149.40,149.40 146.65,151.05 142.80,151.60"/>
    </edge>
    <edge id=":E_21" function="internal">
        <lane id=":E_21_0" index="0" speed="3.65" length="3.23" shape="150.80,144.00 150.00,144.40 149.20,144.00 148.40,142.80"/>
    </edge>
    <edge id=":E_12" function="internal">
        <lane id=":E_12_0" index="0" speed="6.51" length="9.03" shape="142.80,148.40 145.25,148.05 147.00,147.00 148.05,145.25 148.40,142.80"/>
    </edge>
    <edge id=":E_13" function="internal">
        <lane id=":E_13_0" index="0" speed="10.00" length="14.40" shape="142.80,148.40 157.20,148.40"/>
    </edge>
    <edge id=":E_14" function="internal">
        <lane id=":E_14_0" index="0" speed="8.00" length="4.07" shape="142.80,148.40 146.65,148.95 146.80,149.04"/>
    </edge>
    <edge id=":E_15" function="internal">
        <lane id=":E_15_0" index="0" speed="3.65" length="1.44" shape="142.80,148.40 144.00,149.20"/>
    </edge>
    <edge id=":E_22" function="internal">
        <lane id=":E_22_0" index="0" speed="8.00" length="10.13" shape="146.80,149.04 149.40,150.60 151.05,153.35 151.60,157.20"/>
    </edge>
    <edge id=":E_23" function="internal">
        <lane id=":E_23_0" index="0" speed="3.65" length="3.23" shape="144.00,149.20 144.40,150.00 144.00,150.80 142.80,151.60"/>
    </edge>
    <edge id=":F_0" function="internal">
        <lane id=":F_0_0" index="0" speed="3.65" length="4.67" shape="200.00,148.40 201.20,149.20 201.60,150.00 201.20,150.80 200.00,151.60"/>
    </edge>
    <edge id=":G_0" function="internal">
        <lane id=":G_0_0" index="0" speed="3.65" length="4.67" shape="0.00,51.60 -1.20,50.80 -1.60,50.00 -1.20,49.20 0.00,48.40"/>
    </edge>
    <edge id=":H_0" function="internal">
        <lane id=":H_0_0" index="0" speed="6.51" length="9.03" shape="48.40,57.20 48.05,54.75 47.00,53.00 45.25,51.95 42.80,51.60"/>
    </edge>
    <edge id=":H_1" function="internal">
        <lane id=":H_1_0" index="0" speed="10.00" length="14.40" shape="48.40,57.20 48.40,42.80"/>
    </edge>
    <edge id=":H_2" function="internal">
        <lane id=":H_2_0" index="0" speed="8.00" length="4.07" shape="48.40,57.20 48.95,53.35 49.04,53.20"/>
    </edge>
    <edge id=":H_3" function="internal">
        <lane id=":H_3_0" index="0" speed="3.65" length="1.44" shape="48.40,57.20 49.20,56.00"/>
    </edge>
    <edge id=":H_16" function="internal">
        <lane id=":H_16_0" index="0" speed="8.00" length="10.13" shape="49.04,53.20 50.60,50.60 53.35,48.95 57.20,48.40"/>
    </edge>
    <edge id=":H_17" function="internal">
        <lane id=":H_17_0" index="0" speed="3.65" length="3.23" shape="49.20,56.00 50.00,55.60 50.80,56.00 51.60,57.20"/>
    </edge>
    <edge id=":H_4" function="internal">
        <lane id=":H_4_0" index="0" speed="6.51" length="9.03" shape="57.20,51.60 54.75,51.95 53.00,53.00 51.95,54.75 51.60,57.20"/>
    </edge>
    <edge id=":H_5" function="internal">
        <lane id=":H_5_0" index="0" speed="10.00" length="14.40" shape="57.20,51.60 42.80,51.60"/>
    </edge>
    <edge id=":H_6" function="internal">
        <lane id=":H_6_0" index="0" speed="8.00" length="4.07" shape="57.20,51.60 53.35,51.05 53.20,50.96"/>
    </edge>
    <edge id=":H_7" function="internal">
        <lane id=":H_7_0" index="0" speed="3.65" length="1.44" shape="57.20,51.60 56.00,50.80"/>
    </edge>
    <edge id=":H_18" function="internal">
        <lane id=":H_18_0" index="0" speed="8.00" length="10.13" shape="53.20,50.96 50.60,49.40 48.95,46.65 48.40,42.80"/>
    </edge>
    <edge id=":H_19" function="internal">
        <lane id=":H_19_0" index="0" speed="3.65" length="3.23" shape="56.00,50.80 55.60,50.00 56.00,49.20 57.20,48.40"/>
    </edge>
    <edge id=":H_8" function="internal">
        <lane id=":H_8_0" index="0" speed="6.51" length="9.03" shape="51.60,42.80 51.95,45.25 53.00,47.00 54.75,48.05 57.20,48.40"/>
    </edge>
    <edge id=":H_9" function="internal">
        <lane id=":H_9_0" index="0" speed="10.00" length="14.40" shape="51.60,42.80 51.60,57.20"/>
    </edge>
    <edge id=":H_10" function="internal">
        <lane id=":H_10_0" index="0" speed="8.00" length="4.07" shape="51.60,42.80 51.05,46.65 50.96,46.80"/>
    </edge>
    <edge id=":H_11" function="internal">
        <lane id=":H_11_0" index="0" speed="3.65" length="1.44" shape="51.60,42.80 50.80,44.00"/>
    </edge>
    <edge id=":H_20" function="internal">
        <lane id=":H_20_0" index="0" speed="8.00" length="10.13" shape="50.96,46.80 49.40,49.40 46.65,51.05 42.80,51.60"/>
    </edge>
    <edge id=":H_21" function="internal">
        <lane id=":H_21_0" index="0" speed="3.65" length="3.23" shape="50.80,44.00 50.00,44.40 49.20,44.00 48.40,42.80"/>
    </edge>
    <edge id=":H_12" function="internal">
        <lane id=":H_12_0" index="0" speed="6.51" length="9.03" shape="42.80,48.40 45.25,48.05 47.00,47.00 48.05,45.25 48.40,42.80"/>
    </edge>
    <edge id=":H_13" function="internal">
        <lane id=":H_13_0" index="0" speed="10.00" length="14.40" shape="42.80,48.40 57.20,48.40"/>
    </edge>
    <edge id=":H_14" function="internal">
        <lane id=":H_14_0" index="0" speed="8.00" length="4.07" shape="42.80,48.40 46.65,48.95 46.80,49.04"/>
    </edge>
    <edge id=":H_15" function="internal">
        <lane id=":H_15_0" index="0" speed="3.65" length="1.44" shape="42.80,48.40 44.00,49.20"/>
    </edge>
    <edge id=":H_22" function="internal">
        <lane id=":H_22_0" index="0" speed="8.00" length="10.13" shape="46.80,49.04 49.40,50.60 51.05,53.35 51.60,57.20"/>
    </edge>
    <edge id=":H_23" function="internal">
        <lane id=":H_23_0" index="0" speed="3.65" length="3.23" shape="44.00,49.20 44.40,50.00 44.00,50.80 42.80,51.60"/>
    </edge>
    <edge id=":I_0" function="internal">
        <lane id=":I_0_0" index="0" speed="6.51" length="9.03" shape="148.40,57.20 148.05,54.75 147.00,53.00 145.25,51.95 142.80,51.60"/>
    </edge>
    <edge id=":I_1" function="internal">
        <lane id=":I_1_0" index="0" speed="10.00" length="14.40" shape="148.40,57.20 148.40,42.80"/>
    </edge>
    <edge id=":I_2" function="internal">
        <lane id=":I_2_0" index="0" speed="8.00" length="4.07" shape="148.40,57.20 148.95,53.35 149.04,53.20"/>
    </edge>
    <edge id=":I_3" function="internal">
        <lane id=":I_3_0" index="0" speed="3.65" length="1.44" shape="148.40,57.20 149.20,56.00"/>
    </edge>
    <edge id=":I_16" function="internal">
        <lane id=":I_16_0" index="0" speed="8.00" length="10.13" shape="149.04,53.20 150.60,50.60 153.35,48.95 157.20,48.40"/>
    </edge>
    <edge id=":I_17" function="internal">
        <lane id=":I_17_0" index="0" speed="3.65" length="3.23" shape="149.20,56.00 150.00,55.60 150.80,56.00 151.60,57.20"/>
    </edge>
    <edge id=":I_4" function="internal">
        <lane id=":I_4_0" index="0" speed="6.51" length="9.03" shape="157.20,51.60 154.75,51.95 153.00,53.00 151.95,54.75 151.60,57.20"/>
    </edge>
    <edge id=":I_5" function="internal">
        <lane id=":I_5_0" index="0" speed="10.00" length="14.40" shape="157.20,51.60 142.80,51.60"/>
    </edge>
    <edge id=":I_6" function="internal">
        <lane id=":I_6_0" index="0" speed="8.00" length="4.07" shape="157.20,51.60 153.35,51.05 153.20,50.96"/>
    </edge>
    <edge id=":I_7" function="internal">
        <lane id=":I_7_0" index="0" speed="3.65" length="1.44" shape="157.20,51.60 156.00,50.80"/>
    </edge>
    <edge id=":I_18" function="internal">
        <lane id=":I_18_0" index="0" speed="8.00" length="10.13" shape="153.20,50.96 150.60,49.40 148.95,46.65 148.40,42.80"/>
    </edge>
    <edge id=":I_19" function="internal">
        <lane id=":I_19_0" index="0" speed="3.65" length="3.23" shape="156.00,50.80 155.60,50.00 156.00,49.20 157.20,48.40"/>
    </edge>
    <edge id=":I_8" function="internal">
        <lane id=":I_8_0" index="0" speed="6.51" length="9.03" shape="151.60,42.80 151.95,45.25 153.00,47.00 154.75,48.05 157.20,48.40"/>
    </edge>
    <edge id=":I_9" function="internal">
        <lane id=":I_9_0" index="0" speed="10.00" length="14.40" shape="151.60,42.80 151.60,57.20"/>
    </edge>
    <edge id=":I_10" function="internal">
        <lane id=":I_10_0" index="0" speed="8.00" length="4.07" shape="151.60,42.80 151.05,46.65 150.96,46.80"/>
    </edge>
    <edge id=":I_11" function="internal">
        <lane id=":I_11_0" index="0" speed="3.65" length="1.44" shape="151.60,42.80 150.80,44.00"/>
    </edge>
    <edge id=":I_20" function="internal">
        <lane id=":I_20_0" index="0" speed="8.00" length="10.13" shape="150.96,46.80 149.40,49.40 146.65,51.05 142.80,51.60"/>
    </edge>
    <edge id=":I_21" function="internal">
        <lane id=":I_21_0" index="0" speed="3.65" length="3.23" shape="150.80,44.00 150.00,44.40 149.20,44.00 148.40,42.80"/>
    </edge>
    <edge id=":I_12" function="internal">
        <lane id=":I_12_0" index="0" speed="6.51" length="9.03" shape="142.80,48.40 145.25,48.05 147.00,47.00 148.05,45.25 148.40,42.80"/>
    </edge>
    <edge id=":I_13" function="internal">
        <lane id=":I_13_0" index="0" speed="10.00" length="14.40" shape="142.80,48.40 157.20,48.40"/>
    </edge>
    <edge id=":I_14" function="internal">
        <lane id=":I_14_0" index="0" speed="8.00" length="4.07" shape="142.80,48.40 146.65,48.95 146.80,49.04"/>
    </edge>
    <edge id=":I_15" function="internal">
        <lane id=":I_15_0" index="0" speed="3.65" length="1.44" shape="142.80,48.40 144.00,49.20"/>
    </edge>
    <edge id=":I_22" function="internal">
        <lane id=":I_22_0" index="0" speed="8.00" length="10.13" shape="146.80,49.04 149.40,50.60 151.05,53.35 151.60,57.20"/>
    </edge>
    <edge id=":I_23" function="internal">
        <lane id=":I_23_0" index="0" speed="3.65" length="3.23" shape="144.00,49.20 144.40,50.00 144.00,50.80 142.80,51.60"/>
    </edge>
    <edge id=":J_0" function="internal">
        <lane id=":J_0_0" index="0" speed="3.65" length="4.67" shape="200.00,48.40 201.20,49.20 201.60,50.00 201.20,50.80 200.00,51.60"/>
    </edge>
    <edge id=":K_0" function="internal">
        <lane id=":K_0_0" index="0" speed="3.65" length="4.67" shape="48.40,0.00 49.20,-1.20 50.00,-1.60 50.80,-1.20 51.60,0.00"/>
    </edge>
    <edge id=":L_0" function="internal">
        <lane id=":L_0_0" index="0" speed="3.65" length="4.67" shape="148.40,0.00 149.20,-1.20 150.00,-1.60 150.80,-1.20 151.60,0.00"/>
    </edge>

    <edge id="AD" from="A" to="D" priority="-1">
        <lane id="AD_0" index="0" speed="10.00" length="42.80" shape="48.40,200.00 48.40,157.20"/>
    </edge>
    <edge id="BE" from="B" to="E" priority="-1">
        <lane id="BE_0" index="0" speed="10.00" length="42.80" shape="148.40,200.00 148.40,157.20"/>
    </edge>
    <edge id="CD" from="C" to="D" priority="-1">
        <lane id="CD_0" index="0" speed="10.00" length="42.80" shape="0.00,148.40 42.80,148.40"/>
    </edge>
    <edge id="DA" from="D" to="A" priority="-1">
        <lane id="DA_0" index="0" speed="10.00" length="42.80" shape="51.60,157.20 51.60,200.00"/>
    </edge>
    <edge id="DC" from="D" to="C" priority="-1">
        <lane id="DC_0" index="0" speed="10.00" length="42.80" shape="42.80,151.60 0.00,151.60"/>
    </edge>
    <edge id="DE" from="D" to="E" priority="-1">
        <lane id="DE_0" index="0" speed="10.00" length="85.60" shape="57.20,148.40 142.80,148.40"/>
    </edge>
    <edge id="DH" from="D" to="H" priority="-1">
        <lane id="DH_0" index="0" speed="10.00" length="85.60" shape="48.40,142.80 48.40,57.20"/>
    </edge>
    <edge id="EB" from="E" to="B" priority="-1">
        <lane id="EB_0" index="0" speed="10.00" length="42.80" shape="151.60,157.20 151.60,200.00"/>
    </edge>
    <edge id="ED" from="E" to="D" priority="-1">
        <lane id="ED_0" index="0" speed="10.00" length="85.60" shape="142.80,151.60 57.20,151.60"/>
    </edge>
    <edge id="EF" from="E" to="F" priority="-1">
        <lane id="EF_0" index="0" speed="10.00" length="42.80" shape="157.20,148.40 200.00,148.40"/>
    </edge>
    <edge id="EI" from="E" to="I" priority="-1">
        <lane id="EI_0" index="0" speed="10.00" length="85.60" shape="148.40,142.80 148.40,57.20"/>
    </edge>
    <edge id="FE" from="F" to="E" priority="-1">
        <lane id="FE_0" index="0" speed="10.00" length="42.80" shape="200.00,151.60 157.20,151.60"/>
    </edge>
    <edge id="GH" from="G" to="H" priority="-1">
        <lane id="GH_0" index="0" speed="10.00" length="42.80" shape="0.00,48.40 42.80,48.40"/>
    </edge>
    <edge id="HD" from="H" to="D" priority="-1">
        <lane id="HD_0" index="0" speed="10.00" length="85.60" shape="51.60,57.20 51.60,142.80"/>
    </edge>
    <edge id="HG" from="H" to="G" priority="-1">
        <lane id="HG_0" index="0" speed="10.00" length="42.80" shape="42.80,51.60 0.00,51.60"/>
    </edge>
    <edge id="HI" from="H" to="I" priority="-1">
        <lane id="HI_0" index="0" speed="10.00" length="85.60" shape="57.20,48.40 142.80,48.40"/>
    </edge>
    <edge id="HK" from="H" to="K" priority="-1">
        <lane id="HK_0" index="0" speed="10.00" length="42.80" shape="48.40,42.80 48.40,0.00"/>
    </edge>
    <edge id="IE" from="I" to="E" priority="-1">
        <lane id="IE_0" index="0" speed="10.00" length="85.60" shape="151.60,57.20 151.60,142.80"/>
    </edge>
    <edge id="IH" from="I" to="H" priority="-1">
        <lane id="IH_0" index="0" speed="10.00" length="85.60" shape="142.80,51.60 57.20,51.60"/>
    </edge>
    <edge id="IJ" from="I" to="J" priority="-1">
        <lane id="IJ_0" index="0" speed="10.00" length="42.80" shape="157.20,48.40 200.00,48.40"/>
    </edge>
    <edge id="IL" from="I" to="L" priority="-1">
        <lane id="IL_0" index="0" speed="10.00" length="42.80" shape="148.40,42.80 148.40,0.00"/>
    </edge>
    <edge id="JI" from="J" to="I" priority="-1">
        <lane id="JI_0" index="0" speed="10.00" length="42.80" shape="200.00,51.60 157.20,51.60"/>
    </edge>
    <edge id="KH" from="K" to="H" priority="-1">
        <lane id="KH_0" index="0" speed="10.00" length="42.80" shape="51.60,0.00 51.60,42.80"/>
    </edge>
    <edge id="LI" from="L" to="I" priority="-1">
        <lane id="LI_0" index="0" speed="10.00" length="42.80" shape="151.60,0.00 151.60,42.80"/>
    </edge>

    <tlLogic id="D" type="static" programID="0" offset="0">
        <phase duration="42" state="GGggrrrrGGggrrrr"/>
        <phase duration="3"  state="yyyyrrrryyyyrrrr"/>
        <phase duration="42" state="rrrrGGggrrrrGGgg"/>
        <phase duration="3"  state="rrrryyyyrrrryyyy"/>
    </tlLogic>
    <tlLogic id="E" type="static" programID="0" offset="0">
        <phase duration="42" state="GGggrrrrGGggrrrr"/>
        <phase duration="3"  state="yyyyrrrryyyyrrrr"/>
        <phase duration="42" state="rrrrGGggrrrrGGgg"/>
        <phase duration="3"  state="rrrryyyyrrrryyyy"/>
    </tlLogic>
    <tlLogic id="H" type="static" programID="0" offset="0">
        <phase duration="42" state="GGggrrrrGGggrrrr"/>
        <phase duration="3"  state="yyyyrrrryyyyrrrr"/>
        <phase duration="42" state="rrrrGGggrrrrGGgg"/>
        <phase duration="3"  state="rrrryyyyrrrryyyy"/>
    </tlLogic>
    <tlLogic id="I" type="static" programID="0" offset="0">
        <phase duration="42" state="GGggrrrrGGggrrrr"/>
        <phase duration="3"  state="yyyyrrrryyyyrrrr"/>
        <phase duration="42" state="rrrrGGggrrrrGGgg"/>
        <phase duration="3"  state="rrrryyyyrrrryyyy"/>
    </tlLogic>

    <junction id="A" type="priority" x="50.00" y="200.00" incLanes="DA_0" intLanes=":A_0_0" shape="50.00,200.00 53.20,200.00 50.00,200.00">
        <request index="0" response="0" foes="0" cont="0"/>
    </junction>
    <junction id="B" type="priority" x="150.00" y="200.00" incLanes="EB_0" intLanes=":B_0_0" shape="150.00,200.00 153.20,200.00 150.00,200.00">
        <request index="0" response="0" foes="0" cont="0"/>
    </junction>
    <junction id="C" type="priority" x="0.00" y="150.00" incLanes="DC_0" intLanes=":C_0_0" shape="0.00,150.00 0.00,153.20 0.00,150.00">
        <request index="0" response="0" foes="0" cont="0"/>
    </junction>
    <junction id="D" type="traffic_light" x="50.00" y="150.00" incLanes="AD_0 ED_0 HD_0 CD_0" intLanes=":D_0_0 :D_1_0 :D_16_0 :D_17_0 :D_4_0 :D_5_0 :D_18_0 :D_19_0 :D_8_0 :D_9_0 :D_20_0 :D_21_0 :D_12_0 :D_13_0 :D_22_0 :D_23_0" shape="46.80,157.20 53.20,157.20 53.64,154.98 54.20,154.20 54.98,153.64 55.98,153.31 57.20,153.20 57.20,146.80 54.98,146.36 54.20,145.80 53.64,145.02 53.31,144.02 53.20,142.80 46.80,142.80 46.36,145.02 45.80,145.80 45.02,146.36 44.02,146.69 42.80,146.80 42.80,153.20 45.02,153.64 45.80,154.20 46.36,154.98 46.69,155.98">
        <request index="0"  response="0000000000000000" foes="1000010000100000" cont="0"/>
        <request index="1"  response="0100000001000000" foes="0111110001100000" cont="0"/>
        <request index="2"  response="0100011101000000" foes="0110011111100000" cont="1"/>
        <request index="3"  response="0100001000010000" foes="0100001000010000" cont="1"/>
        <request index="4"  response="0000001000000000" foes="0100001000001000" cont="0"/>
        <request index="5"  response="0000011000000111" foes="1100011000000111" cont="0"/>
        <request index="6"  response="0011011000000110" foes="0111111000000110" cont="1"/>
        <request index="7"  response="0010000100000100" foes="0010000100000100" cont="1"/>
        <request index="8"  response="0000000000000000" foes="0010000010000100" cont="0"/>
        <request index="9"  response="0100000001000000" foes="0110000001111100" cont="0"/>
        <request index="10" response="0100000001000011" foes="1110000001100111" cont="1"/>
        <request index="11" response="0001000001000010" foes="0001000001000010" cont="1"/>
        <request index="12" response="0000000000000010" foes="0000100001000010" cont="0"/>
        <request index="13" response="0000011100000110" foes="0000011111000110" cont="0"/>
        <request index="14" response="0000011001110110" foes="0000011001111110" cont="1"/>
        <request index="15" response="0000010000100001" foes="0000010000100001" cont="1"/>
    </junction>
    <junction id="E" type="traffic_light" x="150.00" y="150.00" incLanes="BE_0 FE_0 IE_0 DE_0" intLanes=":E_0_0 :E_1_0 :E_16_0 :E_17_0 :E_4_0 :E_5_0 :E_18_0 :E_19_0 :E_8_0 :E_9_0 :E_20_0 :E_21_0 :E_12_0 :E_13_0 :E_22_0 :E_23_0" shape="146.80,157.20 153.20,157.20 153.64,154.98 154.20,154.20 154.98,153.64 155.98,153.31 157.20,153.20 157.20,146.80 154.98,146.36 154.20,145.80 153.64,145.02 153.31,144.02 153.20,142.80 146.80,142.80 146.36,145.02 145.80,145.80 145.02,146.36 144.02,146.69 142.80,146.80 142.80,153.20 145.02,153.64 145.80,154.20 146.36,154.98 146.69,155.98">
        <request index="0"  response="0000000000000000" foes="1000010000100000" cont="0"/>
        <request index="1"  response="0100000001000000" foes="0111110001100000" cont="0"/>
        <request index="2"  response="0100011101000000" foes="0110011111100000" cont="1"/>
        <request index="3"  response="0100001000010000" foes="0100001000010000" cont="1"/>
        <request index="4"  response="0000001000000000" foes="0100001000001000" cont="0"/>
        <request index="5"  response="0000011000000111" foes="1100011000000111" cont="0"/>
        <request index="6"  response="0011011000000110" foes="0111111000000110" cont="1"/>
        <request index="7"  response="0010000100000100" foes="0010000100000100" cont="1"/>
        <request index="8"  response="0000000000000000" foes="0010000010000100" cont="0"/>
        <request index="9"  response="0100000001000000" foes="0110000001111100" cont="0"/>
        <request index="10" response="0100000001000011" foes="1110000001100111" cont="1"/>
        <request index="11" response="0001000001000010" foes="0001000001000010" cont="1"/>
        <request index="12" response="0000000000000010" foes="0000100001000010" cont="0"/>
        <request index="13" response="0000011100000110" foes="0000011111000110" cont="0"/>
        <request index="14" response="0000011001110110" foes="0000011001111110" cont="1"/>
        <request index="15" response="0000010000100001" foes="0000010000100001" cont="1"/>
    </junction>
    <junction id="F" type="priority" x="200.00" y="150.00" incLanes="EF_0" intLanes=":F_0_0" shape="200.00,150.00 200.00,146.80 200.00,150.00">
        <request index="0" response="0" foes="0" cont="0"/>
    </junction>
    <junction id="G" type="priority" x="0.00" y="50.00" incLanes="HG_0" intLanes=":G_0_0" shape="0.00,50.00 0.00,53.20 0.00,50.00">
        <request index="0" response="0" foes="0" cont="0"/>
    </junction>
    <junction id="H" type="traffic_light" x="50.00" y="50.00" incLanes="DH_0 IH_0 KH_0 GH_0" intLanes=":H_0_0 :H_1_0 :H_16_0 :H_17_0 :H_4_0 :H_5_0 :H_18_0 :H_19_0 :H_8_0 :H_9_0 :H_20_0 :H_21_0 :H_12_0 :H_13_0 :H_22_0 :H_23_0" shape="46.80,57.20 53.20,57.20 53.64,54.98 54.20,54.20 54.98,53.64 55.98,53.31 57.20,53.20 57.20,46.80 54.98,46.36 54.20,45.80 53.64,45.02 53.31,44.02 53.20,42.80 46.80,42.80 46.36,45.02 45.80,45.80 45.02,46.36 44.02,46.69 42.80,46.80 42.80,53.20 45.02,53.64 45.80,54.20 46.36,54.98 46.69,55.98">
        <request index="0"  response="0000000000000000" foes="1000010000100000" cont="0"/>
        <request index="1"  response="0100000001000000" foes="0111110001100000" cont="0"/>
        <request index="2"  response="0100011101000000" foes="0110011111100000" cont="1"/>
        <request index="3"  response="0100001000010000" foes="0100001000010000" cont="1"/>