<?xml version="1.0" ?>
<trips>
   <trip id="trip_6511798196_7914822015_0" depart="2312.55" from="6511798196" to="7914822015"/>
   <trip id="trip_6511798196_7914822015_1" depart="3478.36" from="6511798196" to="7914822015"/>
   <trip id="trip_6511798196_7914822015_2" depart="699.69" from="6511798196" to="7914822015"/>
   <trip id="trip_6511798196_7914822015_3" depart="827.30" from="6511798196" to="7914822015"/>
   <trip id="trip_6511798196_7914822015_4" depart="2625.48" from="6511798196" to="7914822015"/>
   <trip id="trip_6511798196_7914822015_5" depart="3103.87" from="6511798196" to="7914822015"/>
   <trip id="trip_6511798196_7914822015_6" depart="938.41" from="6511798196" to="7914822015"/>
   <trip id="trip_6511798196_7914822015_7" depart="1805.55" from="6511798196" to="7914822015"/>
   <trip id="trip_6511798196_7914822015_8" depart="2759.73" from="6511798196" to="7914822015"/>
   <trip id="trip_6511798196_7914822015_9" depart="2733.41" from="6511798196" to="7914822015"/>
   <trip id="trip_6511798196_7914822015_10" depart="1349.81" from="6511798196" to="7914822015"/>
   <trip id="trip_6511798196_7914822015_11" depart="1375.41" from="6511798196" to="7914822015"/>
   <trip id="trip_6511798196_7914822015_12" depart="3166.26" from="6511798196" to="7914822015"/>
   <trip id="trip_6511798196_7914822015_13" depart="50.57" from="6511798196" to="7914822015"/>
   <trip id="trip_6511798196_7914822015_14" depart="3052.45" from="6511798196" to="7914822015"/>
   <trip id="trip_6511798196_7914822015_15" depart="1991.79" from="6511798196" to="7914822015"/>
   <trip id="trip_6511798196_7914822015_16" depart="1310.70" from="6511798196" to="7914822015"/>
   <trip id="trip_6511798196_7914822015_17" depart="20.05" from="6511798196" to="7914822015"/>
   <trip id="trip_6511798196_7914822015_18" depart="1340.33" from="6511798196" to="7914822015"/>
   <trip id="trip_6511798196_7914822015_19" depart="1876.72" from="6511798196" to="7914822015"/>
   <trip id="trip_6511798196_7914822015_20" depart="2133.90" from="6511798196" to="7914822015"/>
   <trip id="trip_6511798196_7914822015_21" depart="2737.42" from="6511798196" to="7914822015"/>
   <trip id="trip_6511798196_7914822015_22" depart="2870.31" from="6511798196" to="7914822015"/>
   <trip id="trip_6511798196_7914822015_23" depart="795.95" from="6511798196" to="7914822015"/>
   <trip id="trip_6511798196_7914822015_24" depart="2862.86" from="6511798196" to="7914822015"/>
   <trip id="trip_6511798196_7914822015_25" depart="2118.22" from="6511798196" to="7914822015"/>
   <trip id="trip_6511798196_7914822015_26" depart="175.10" from="6511798196" to="7914822015"/>
   <trip id="trip_6511798196_7914822015_27" depart="2782.86" from="6511798196" to="7914822015"/>
   <trip id="trip_6511798196_7914822015_28" depart="2088.63" from="6511798196" to="7914822015"/>
   <trip id="trip_6511798196_7914822015_29" depart="1865.35" from="6511798196" to="7914822015"/>
   <trip id="trip_6511798196_7914822015_30" depart="2990.65" from="6511798196" to="7914822015"/>
   <trip id="trip_6511798196_7914822015_31" depart="1060.09" from="6511798196" to="7914822015"/>
   <trip id="trip_6511798196_7914822015_32" depart="1445.12" from="6511798196" to="7914822015"/>
   <trip id="trip_6511798196_7914822015_33" depart="3209.32" from="6511798196" to="7914822015"/>
   <trip id="trip_6511798196_7914822015_34" depart="2283.16" from="6511798196" to="7914822015"/>
   <trip id="trip_6511798196_7914822015_35" depart="2653.23" from="6511798196" to="7914822015"/>
   <trip id="trip_6511798196_7914822015_36" depart="1726.27" from="6511798196" to="7914822015"/>
   <trip id="trip_6511798196_7914822015_37" depart="2181.47" from="6511798196" to="7914822015"/>
   <trip id="trip_6511798196_7914822015_38" depart="259.71" from="6511798196" to="7914822015"/>
   <trip id="trip_6511798196_7914822015_39" depart="2813.28" from="6511798196" to="7914822015"/>
   <trip id="trip_6511798196_7914822015_40" depart="619.42" from="6511798196" to="7914822015"/>
   <trip id="trip_6511798196_7914822015_41" depart="1601.05" from="6511798196" to="7914822015"/>
   <trip id="trip_6511798196_7914822015_42" depart="569.33" from="6511798196" to="7914822015"/>
   <trip id="trip_6511798196_7914822015_43" depart="1774.46" from="6511798196" to="7914822015"/>
   <trip id="trip_6511798196_7914822015_44" depart="1125.06" from="6511798196" to="7914822015"/>
   <trip id="trip_6511798196_7914822015_45" depart="2853.63" from="6511798196" to="7914822015"/>
   <trip id="trip_6511798196_7914822015_46" depart="1209.90" from="6511798196" to="7914822015"/>
   <trip id="trip_6511798196_7914822015_47" depart="3052.35" from="6511798196" to="7914822015"/>
   <trip id="trip_6511798196_7914822015_48" depart="11.54" from="6511798196" to="7914822015"/>
   <trip id="trip_6511798196_7914822015_49" depart="1178.33" from="6511798196" to="7914822015"/>
   <trip id="trip_6511798196_7914822015_50" depart="3565.17" from="6511798196" to="7914822015"/>
   <trip id="trip_6511798196_7914822015_51" depart="2471.06" from="6511798196" to="7914822015"/>
   <trip id="trip_6511798196_7914822015_52" depart="2484.54" from="6511798196" to="7914822015"/>
   <trip id="trip_6511798196_7914822015_53" depart="3017.48" from="6511798196" to="7914822015"/>
   <trip id="trip_6511798196_7914822015_54" depart="1376.22" from="6511798196" to="7914822015"/>
   <trip id="trip_6511798196_7914822015_55" depart="709.16" from="6511798196" to="7914822015"/>
   <trip id="trip_6511798196_7914822015_56" depart="1226.18" from="6511798196" to="7914822015"/>
   <trip id="trip_6511798196_7914822015_57" depart="147.06" from="6511798196" to="7914822015"/>
   <trip id="trip_6511798196_7914822015_58" depart="3233.50" from="6511798196" to="7914822015"/>
   <trip id="trip_6511798196_7914822015_59" depart="408.49" from="6511798196" to="7914822015"/>
   <trip id="trip_6511798196_7914822015_60" depart="1597.53" from="6511798196" to="7914822015"/>
   <trip id="trip_6511798196_7914822015_61" depart="1173.17" from="6511798196" to="7914822015"/>
   <trip id="trip_6511798196_7914822015_62" depart="957.03" from="6511798196" to="7914822015"/>
   <trip id="trip_6511798196_7914822015_63" depart="391.96" from="6511798196" to="7914822015"/>
   <trip id="trip_6511798196_7914822015_64" depart="1626.26" from="6511798196" to="7914822015"/>
   <trip id="trip_6511798196_7914822015_65" depart="2944.07" from="6511798196" to="7914822015"/>
   <trip id="trip_6511798196_7914822015_66" depart="566.26" from="6511798196" to="7914822015"/>
   <trip id="trip_6511798196_7914822015_67" depart="3162.90" from="6511798196" to="7914822015"/>
   <trip id="trip_6511798196_7914822015_68" depart="106.37" from="6511798196" to="7914822015"/>
   <trip id="trip_6511798196_7914822015_69" depart="488.18" from="6511798196" to="7914822015"/>
   <trip id="trip_6511798196_7914822015_70" depart="770.59" from="6511798196" to="7914822015"/>
   <trip id="trip_6511798196_7914822015_71" depart="917.09" from="6511798196" to="7914822015"/>
   <trip id="trip_6511798196_7914822015_72" depart="3034.33" from="6511798196" to="7914822015"/>
   <trip id="trip_6511798196_7914822015_73" depart="484.90" from="6511798196" to="7914822015"/>
   <trip id="trip_6511798196_7914822015_74" depart="1664.25" from="6511798196" to="7914822015"/>
   <trip id="trip_6511798196_7914822015_75" depart="845.67" from="6511798196" to="7914822015"/>
   <trip id="trip_6511798196_7914822015_76" depart="1418.31" from="6511798196" to="7914822015"/>
   <trip id="trip_6511798196_7914822015_77" depart="137.08" from="6511798196" to="7914822015"/>
   <trip id="trip_6511798196_7914822015_78" depart="2413.32" from="6511798196" to="7914822015"/>
   <trip id="trip_6511798196_7914822015_79" depart="3387.39" from="6511798196" to="7914822015"/>
   <trip id="trip_6511798196_7914822015_80" depart="1585.08" from="6511798196" to="7914822015"/>
   <trip id="trip_6511798196_7914822015_81" depart="2858.06" from="6511798196" to="7914822015"/>
   <trip id="trip_6511798196_7914822015_82" depart="1652.61" from="6511798196" to="7914822015"/>
   <trip id="trip_6511798196_7914822015_83" depart="1967.22" from="6511798196" to="7914822015"/>
   <trip id="trip_6511798196_7914822015_84" depart="923.92" from="6511798196" to="7914822015"/>
   <trip id="trip_6511798196_7914822015_85" depart="3151.28" from="6511798196" to="7914822015"/>
   <trip id="trip_6511798196_7914822015_86" depart="1228.97" from="6511798196" to="7914822015"/>
   <trip id="trip_6511798196_7914822015_87" depart="2183.79" from="6511798196" to="7914822015"/>
   <trip id="trip_6511798196_7914822015_88" depart="1223.87" from="6511798196" to="7914822015"/>
   <trip id="trip_6511798196_7914822015_89" depart="281.40" from="6511798196" to="7914822015"/>
   <trip id="trip_6511798196_7914822015_90" depart="1536.93" from="6511798196" to="7914822015"/>
   <trip id="trip_6511798196_7914822015_91" depart="2973.46" from="6511798196" to="7914822015"/>
   <trip id="trip_6511798196_7914822015_92" depart="2379.38" from="6511798196" to="7914822015"/>
   <trip id="trip_6511798196_7914822015_93" depart="929.25" from="6511798196" to="7914822015"/>
   <trip id="trip_6511798196_7914822015_94" depart="690.24" from="6511798196" to="7914822015"/>
   <trip id="trip_6511798196_7914822015_95" depart="3544.01" from="6511798196" to="7914822015"/>
   <trip id="trip_6511798196_7914822015_96" depart="2029.61" from="6511798196" to="7914822015"/>
   <trip id="trip_6511798196_7914822015_97" depart="2211.81" from="6511798196" to="7914822015"/>
   <trip id="trip_6511798196_7914822015_98" depart="3441.91" from="6511798196" to="7914822015"/>
   <trip id="trip_6511798196_7914822015_99" depart="2644.15" from="6511798196" to="7914822015"/>
   <trip id="trip_6511798196_7914822015_100" depart="658.99" from="6511798196" to="7914822015"/>
   <trip id="trip_6511798196_7914822015_101" depart="3511.45" from="6511798196" to="7914822015"/>
   <trip id="trip_6511798196_7914822015_102" depart="3098.47" from="6511798196" to="7914822015"/>
   <trip id="trip_6511798196_7914822015_103" depart="2475.92" from="6511798196" to="7914822015"/>
   <trip id="trip_6511798196_7914822015_104" depart="3409.48" from="6511798196" to="7914822015"/>
   <trip id="trip_6511798196_7914822015_105" depart="396.84" from="6511798196" to="7914822015"/>
   <trip id="trip_6511798196_7914822015_106" depart="3301.46" from="6511798196" to="7914822015"/>
   <trip id="trip_6511798196_7914822015_107" depart="773.57" from="6511798196" to="7914822015"/>
   <trip id="trip_6511798196_7914822015_108" depart="1729.75" from="6511798196" to="7914822015"/>
   <trip id="trip_6511798196_7914822015_109" depart="1571.63" from="6511798196" to="7914822015"/>
   <trip id="trip_6511798196_7914822015_110" depart="1141.84" from="6511798196" to="7914822015"/>
   <trip id="trip_6511798196_7914822015_111" depart="431.77" from="6511798196" to="7914822015"/>
   <trip id="trip_6511798196_7914822015_112" depart="904.15" from="6511798196" to="7914822015"/>
   <trip id="trip_6511798196_7914822015_113" depart="386.37" from="6511798196" to="7914822015"/>
   <trip id="trip_6511798196_7914822015_114" depart="1667.54" from="6511798196" to="7914822015"/>
   <trip id="trip_6511798196_7914822015_115" depart="1538.81" from="6511798196" to="7914822015"/>
   <trip id="trip_6511798196_7914822015_116" depart="422.84" from="6511798196" to="7914822015"/>
   <trip id="trip_6511798196_7914822015_117" depart="2032.49" from="6511798196" to="7914822015"/>
   <trip id="trip_6511798196_7914822015_118" depart="735.31" from="6511798196" to="7914822015"/>
   <trip id="trip_6511798196_7914822015_119" depart="2718.61" from="6511798196" to="7914822015"/>
   <trip id="trip_6511798196_7914822015_120" depart="3394.16" from="6511798196" to="7914822015"/>
   <trip id="trip_6511798196_7914822015_121" depart="3394.03" from="6511798196" to="7914822015"/>
   <trip id="trip_6511798196_7914822015_122" depart="757.54" from="6511798196" to="7914822015"/>
   <trip id="trip_6511798196_7914822015_123" depart="1590.31" from="6511798196" to="7914822015"/>
   <trip id="trip_6511798196_7914822015_124" depart="2423.15" from="6511798196" to="7914822015"/>
   <trip id="trip_6511798196_7914822015_125" depart="1907.98" from="6511798196" to="7914822015"/>
   <trip id="trip_6511798196_7914822015_126" depart="3464.33" from="6511798196" to="7914822015"/>
   <trip id="trip_6511798196_7914822015_127" depart="2015.09" from="6511798196" to="7914822015"/>
   <trip id="trip_6511798196_7914822015_128" depart="1991.62" from="6511798196" to="7914822015"/>
   <trip id="trip_6511798196_7914822015_129" depart="2292.04" from="6511798196" to="7914822015"/>
   <trip id="trip_6511798196_7914822015_130" depart="523.81" from="6511798196" to="7914822015"/>
   <trip id="trip_6511798196_7914822015_131" depart="130.78" from="6511798196" to="7914822015"/>
   <trip id="trip_6511798196_7914822015_132" depart="1096.54" from="6511798196" to="7914822015"/>
   <trip id="trip_6511798196_7914822015_133" depart="3195.96" from="6511798196" to="7914822015"/>
   <trip id="trip_6511798196_7914822015_134" depart="194.97" from="6511798196" to="7914822015"/>
   <trip id="trip_6511798196_7914822015_135" depart="3084.97" from="6511798196" to="7914822015"/>
   <trip id="trip_6511798196_7914822015_136" depart="2548.63" from="6511798196" to="7914822015"/>
   <trip id="trip_6511798196_7914822015_137" depart="2976.59" from="6511798196" to="7914822015"/>
   <trip id="trip_6511798196_7914822015_138" depart="890.97" from="6511798196" to="7914822015"/>
   <trip id="trip_6511798196_7914822015_139" depart="39.23" from="6511798196" to="7914822015"/>
   <trip id="trip_6511798196_7914822015_140" depart="3117.43" from="6511798196" to="7914822015"/>
   <trip id="trip_6511798196_7914822015_141" depart="106.95" from="6511798196" to="7914822015"/>
   <trip id="trip_6511798196_7914822015_142" depart="3469.43" from="6511798196" to="7914822015"/>
   <trip id="trip_6511798196_7914822015_143" depart="53.80" from="6511798196" to="7914822015"/>
   <trip id="trip_6511798196_7914822015_144" depart="3569.31" from="6511798196" to="7914822015"/>
   <trip id="trip_6511798196_7914822015_145" depart="1018.78" from="6511798196" to="7914822015"/>
   <trip id="trip_6511798196_7914822015_146" depart="2541.41" from="6511798196" to="7914822015"/>
   <trip id="trip_6511798196_7914822015_147" depart="708.26" from="6511798196" to="7914822015"/>
   <trip id="trip_6511798196_7914822015_148" depart="2086.21" from="6511798196" to="7914822015"/>
   <trip id="trip_6511798196_7914822015_149" depart="780.76" from="6511798196" to="7914822015"/>
   <trip id="trip_6511798196_7914822015_150" depart="1790.40" from="6511798196" to="7914822015"/>
   <trip id="trip_6511798196_7914822015_151" depart="1691.68" from="6511798196" to="7914822015"/>
   <trip id="trip_6511798196_7914822015_152" depart="2793.67" from="6511798196" to="7914822015"/>
   <trip id="trip_6511798196_7914822015_153" depart="3273.83" from="6511798196" to="7914822015"/>
   <trip id="trip_6511798196_7914822015_154" depart="2142.76" from="6511798196" to="7914822015"/>
   <trip id="trip_6511798196_7914822015_155" depart="1026.21" from="6511798196" to="7914822015"/>
   <trip id="trip_6511798196_7914822015_156" depart="3454.28" from="6511798196" to="7914822015"/>
   <trip id="trip_6511798196_7914822015_157" depart="2363.13" from="6511798196" to="7914822015"/>
   <trip id="trip_6511798196_7914822015_158" depart="2264.80" from="6511798196" to="7914822015"/>
   <trip id="trip_6511798196_7914822015_159" depart="1563.34" from="6511798196" to="7914822015"/>
   <trip id="trip_6511798196_7914822015_160" depart="2142.86" from="6511798196" to="7914822015"/>
   <trip id="trip_6511798196_7914822015_161" depart="1515.32" from="6511798196" to="7914822015"/>
   <trip id="trip_6511798196_7914822015_162" depart="627.45" from="6511798196" to="7914822015"/>
   <trip id="trip_6511798196_7914822015_163" depart="2428.13" from="6511798196" to="7914822015"/>
   <trip id="trip_6511798196_7914822015_164" depart="3568.21" from="6511798196" to="7914822015"/>
   <trip id="trip_6511798196_7914822015_165" depart="571.09" from="6511798196" to="7914822015"/>
   <trip id="trip_6511798196_7914822015_166" depart="76.80" from="6511798196" to="7914822015"/>
   <trip id="trip_6511798196_7914822015_167" depart="147.13" from="6511798196" to="7914822015"/>
   <trip id="trip_6511798196_7914822015_168" depart="1554.08" from="6511798196" to="7914822015"/>
   <trip id="trip_6511798196_7914822015_169" depart="2329.21" from="6511798196" to="7914822015"/>
   <trip id="trip_6511798196_7914822015_170" depart="3309.52" from="6511798196" to="7914822015"/>
   <trip id="trip_6511798196_7914822015_171" depart="985.69" from="6511798196" to="7914822015"/>
   <trip id="trip_6511798196_7914822015_172" depart="2353.88" from="6511798196" to="7914822015"/>
   <trip id="trip_6511798196_7914822015_173" depart="117.12" from="6511798196" to="7914822015"/>
   <trip id="trip_6511798196_7914822015_174" depart="822.90" from="6511798196" to="7914822015"/>
   <trip id="trip_6511798196_7914822015_175" depart="442.01" from="6511798196" to="7914822015"/>
   <trip id="trip_6511798196_7914822015_176" depart="843.13" from="6511798196" to="7914822015"/>
   <trip id="trip_6511798196_7914822015_177" depart="913.02" from="6511798196" to="7914822015"/>
   <trip id="trip_6511798196_7914822015_178" depart="2167.37" from="6511798196" to="7914822015"/>
   <trip id="trip_6511798196_7914822015_179" depart="2762.47" from="6511798196" to="7914822015"/>
   <trip id="trip_6511798196_7914822015_180" depart="831.28" from="6511798196" to="7914822015"/>
   <trip id="trip_6511798196_7914822015_181" depart="2904.58" from="6511798196" to="7914822015"/>
   <trip id="trip_6511798196_7914822015_182" depart="2578.57" from="6511798196" to="7914822015"/>
   <trip id="trip_6511798196_7914822015_183" depart="2347.08" from="6511798196" to="7914822015"/>
   <trip id="trip_6511798196_7914822015_184" depart="2294.16" from="6511798196" to="7914822015"/>
   <trip id="trip_6511798196_7914822015_185" depart="619.03" from="6511798196" to="7914822015"/>
   <trip id="trip_6511798196_7914822015_186" depart="2276.65" from="6511798196" to="7914822015"/>
   <trip id="trip_6511798196_7914822015_187" depart="2921.24" from="6511798196" to="7914822015"/>
   <trip id="trip_6511798196_7914822015_188" depart="728.36" from="6511798196" to="7914822015"/>
   <trip id="trip_6511798196_7914822015_189" depart="3236.19" from="6511798196" to="7914822015"/>
   <trip id="trip_6511798196_7914822015_190" depart="2772.70" from="6511798196" to="7914822015"/>
   <trip id="trip_6511798196_7914822015_191" depart="3403.49" from="6511798196" to="7914822015"/>
   <trip id="trip_6511798196_7914822015_192" depart="2038.70" from="6511798196" to="7914822015"/>
   <trip id="trip_6511798196_7914822015_193" depart="3127.08" from="6511798196" to="7914822015"/>
   <trip id="trip_6511798196_7914822015_194" depart="3288.36" from="6511798196" to="7914822015"/>
   <trip id="trip_6511798196_7914822015_195" depart="3347.22" from="6511798196" to="7914822015"/>
   <trip id="trip_6511798196_7914822015_196" depart="3426.76" from="6511798196" to="7914822015"/>
   <trip id="trip_6511798196_7914822015_197" depart="2835.74" from="6511798196" to="7914822015"/>
   <trip id="trip_6511798196_7914822015_198" depart="870.64" from="6511798196" to="7914822015"/>
   <trip id="trip_6511798196_7914822015_199" depart="1478.60" from="6511798196" to="7914822015"/>
   <trip id="trip_6511798196_7914822015_200" depart="884.61" from="6511798196" to="7914822015"/>
   <trip id="trip_6511798196_7914822015_201" depart="988.95" from="6511798196" to="7914822015"/>
   <trip id="trip_6511798196_7914822015_202" depart="2054.47" from="6511798196" to="7914822015"/>
   <trip id="trip_6511798196_7914822015_203" depart="1942.09" from="6511798196" to="7914822015"/>
   <trip id="trip_6511798196_7914822015_204" depart="2609.91" from="6511798196" to="7914822015"/>
   <trip id="trip_6511798196_7914822015_205" depart="2514.93" from="6511798196" to="7914822015"/>
   <trip id="trip_6511798196_7914822015_206" depart="309.88" from="6511798196" to="7914822015"/>
   <trip id="trip_6511798196_7914822015_207" depart="3431.80" from="6511798196" to="7914822015"/>
   <trip id="trip_6511798196_7914822015_208" depart="3230.31" from="6511798196" to="7914822015"/>
   <trip id="trip_6511798196_7914822015_209" depart="358.61" from="6511798196" to="7914822015"/>
   <trip id="trip_6511798196_7914822015_210" depart="3132.88" from="6511798196" to="7914822015"/>
   <trip id="trip_6511798196_7914822015_211" depart="180.21" from="6511798196" to="7914822015"/>
   <trip id="trip_6511798196_7914822015_212" depart="985.88" from="6511798196" to="7914822015"/>
   <trip id="trip_6511798196_7914822015_213" depart="764.71" from="6511798196" to="7914822015"/>
   <trip id="trip_6511798196_7914822015_214" depart="2743.90" from="6511798196" to="7914822015"/>
   <trip id="trip_6511798196_7914822015_215" depart="1489.34" from="6511798196" to="7914822015"/>
   <trip id="trip_6511798196_7914822015_216" depart="2298.47" from="6511798196" to="7914822015"/>
   <trip id="trip_6511798196_7914822015_217" depart="3058.92" from="6511798196" to="7914822015"/>
   <trip id="trip_6511798196_7914822015_218" depart="378.79" from="6511798196" to="7914822015"/>
   <trip id="trip_6511798196_7914822015_219" depart="1017.83" from="6511798196" to="7914822015"/>
   <trip id="trip_6511798196_7914822015_220" depart="3219.11" from="6511798196" to="7914822015"/>
   <trip id="trip_6511798196_7914822015_221" depart="1075.05" from="6511798196" to="7914822015"/>
   <trip id="trip_6511798196_7914822015_222" depart="1048.73" from="6511798196" to="7914822015"/>
   <trip id="trip_6511798196_7914822015_223" depart="1597.01" from="6511798196" to="7914822015"/>
   <trip id="trip_6511798196_7914822015_224" depart="2592.75" from="6511798196" to="7914822015"/>
   <trip id="trip_6511798196_7914822015_225" depart="1646.26" from="6511798196" to="7914822015"/>
   <trip id="trip_6511798196_7914822015_226" depart="488.58" from="6511798196" to="7914822015"/>
   <trip id="trip_6511798196_7914822015_227" depart="2721.66" from="6511798196" to="7914822015"/>
   <trip id="trip_6511798196_7914822015_228" depart="3297.54" from="6511798196" to="7914822015"/>
   <trip id="trip_6511798196_7914822015_229" depart="189.55" from="6511798196" to="7914822015"/>
   <trip id="trip_6511798196_7914822015_230" depart="483.84" from="6511798196" to="7914822015"/>
   <trip id="trip_6511798196_7914822015_231" depart="3017.24" from="6511798196" to="7914822015"/>
   <trip id="trip_6511798196_7914822015_232" depart="3511.38" from="6511798196" to="7914822015"/>
   <trip id="trip_6511798196_7914822015_233" depart="129.66" from="6511798196" to="7914822015"/>
   <trip id="trip_6511798196_7914822015_234" depart="2354.66" from="6511798196" to="7914822015"/>
   <trip id="trip_6511798196_7914822015_235" depart="1492.69" from="6511798196" to="7914822015"/>
   <trip id="trip_6511798196_7914822015_236" depart="2233.90" from="6511798196" to="7914822015"/>
   <trip id="trip_6511798196_7914822015_237" depart="1938.17" from="6511798196" to="7914822015"/>
   <trip id="trip_6511798196_7914822015_238" depart="2613.90" from="6511798196" to="7914822015"/>
   <trip id="trip_6511798196_7914822015_239" depart="2973.77" from="6511798196" to="7914822015"/>
   <trip id="trip_6511798196_7914822015_240" depart="2706.05" from="6511798196" to="7914822015"/>
   <trip id="trip_6511798196_7914822015_241" depart="288.83" from="6511798196" to="7914822015"/>
   <trip id="trip_6511798196_7914822015_242" depart="1884.08" from="6511798196" to="7914822015"/>
   <trip id="trip_6511798196_7914822015_243" depart="1844.06" from="6511798196" to="7914822015"/>
   <trip id="trip_6511798196_7914822015_244" depart="1975.84" from="6511798196" to="7914822015"/>
   <trip id="trip_6511798196_7914822015_245" depart="3380.19" from="6511798196" to="7914822015"/>
   <trip id="trip_6511798196_7914822015_246" depart="3440.09" from="6511798196" to="7914822015"/>
   <trip id="trip_6511798196_7914822015_247" depart="1491.60" from="6511798196" to="7914822015"/>
   <trip id="trip_6511798196_7914822015_248" depart="3284.72" from="6511798196" to="7914822015"/>
   <trip id="trip_6511798196_7914822015_249" depart="496.33" from="6511798196" to="7914822015"/>
   <trip id="trip_6511798196_7914822015_250" depart="119.74" from="6511798196" to="7914822015"/>
   <trip id="trip_6511798196_7914822015_251" depart="3495.89" from="6511798196" to="7914822015"/>
   <trip id="trip_6511798196_7914822015_252" depart="976.76" from="6511798196" to="7914822015"/>
   <trip id="trip_6511798196_7914822015_253" depart="1814.08" from="6511798196" to="7914822015"/>
   <trip id="trip_6511798196_7914822015_254" depart="1639.19" from="6511798196" to="7914822015"/>
   <trip id="trip_6511798196_7914822015_255" depart="1854.32" from="6511798196" to="7914822015"/>
   <trip id="trip_6511798196_7914822015_256" depart="1069.25" from="6511798196" to="7914822015"/>
   <trip id="trip_6511798196_7914822015_257" depart="2458.84" from="6511798196" to="7914822015"/>
   <trip id="trip_6511798196_7914822015_258" depart="2404.07" from="6511798196" to="7914822015"/>
   <trip id="trip_6511798196_7914822015_259" depart="540.40" from="6511798196" to="7914822015"/>
   <trip id="trip_6511798196_7914822015_260" depart="1728.44" from="6511798196" to="7914822015"/>
   <trip id="trip_6511798196_7914822015_261" depart="3140.65" from="6511798196" to="7914822015"/>
   <trip id="trip_6511798196_7914822015_262" depart="3095.21" from="6511798196" to="7914822015"/>
   <trip id="trip_6511798196_7914822015_263" depart="1444.34" from="6511798196" to="7914822015"/>
   <trip id="trip_6511798196_7914822015_264" depart="1920.67" from="6511798196" to="7914822015"/>
   <trip id="trip_6511798196_7914822015_265" depart="1153.77" from="6511798196" to="7914822015"/>
   <trip id="trip_6511798196_7914822015_266" depart="2851.86" from="6511798196" to="7914822015"/>
   <trip id="trip_6511798196_7914822015_267" depart="308.15" from="6511798196" to="7914822015"/>
   <trip id="trip_6511798196_7914822015_268" depart="2018.72" from="6511798196" to="7914822015"/>
   <trip id="trip_6511798196_7914822015_269" depart="1463.50" from="6511798196" to="7914822015"/>
   <trip id="trip_6511798196_7914822015_270" depart="1974.57" from="6511798196" to="7914822015"/>
   <trip id="trip_6511798196_7914822015_271" depart="2262.12" from="6511798196" to="7914822015"/>
   <trip id="trip_6511798196_7914822015_272" depart="1692.31" from="6511798196" to="7914822015"/>
   <trip id="trip_6511798196_7914822015_273" depart="808.10" from="6511798196" to="7914822015"/>
   <trip id="trip_6511798196_7914822015_274" depart="2575.25" from="6511798196" to="7914822015"/>
   <trip id="trip_6511798196_7914822015_275" depart="1183.91" from="6511798196" to="7914822015"/>
   <trip id="trip_6511798196_7914822015_276" depart="2149.11" from="6511798196" to="7914822015"/>
   <trip id="trip_6511798196_7914822015_277" depart="269.66" from="6511798196" to="7914822015"/>
   <trip id="trip_6511798196_7914822015_278" depart="1258.19" from="6511798196" to="7914822015"/>
   <trip id="trip_6511798196_7914822015_279" depart="466.10" from="6511798196" to="7914822015"/>
   <trip id="trip_6511798196_7914822015_280" depart="1907.47" from="6511798196" to="7914822015"/>
   <trip id="trip_6511798196_7914822015_281" depart="92.81" from="6511798196" to="7914822015"/>
   <trip id="trip_6511798196_7914822015_282" depart="871.97" from="6511798196" to="7914822015"/>
   <trip id="trip_6511798196_7914822015_283" depart="2723.75" from="6511798196" to="7914822015"/>
   <trip id="trip_6511798196_7914822015_284" depart="1003.74" from="6511798196" to="7914822015"/>
   <trip id="trip_6511798196_7914822015_285" depart="449.27" from="6511798196" to="7914822015"/>
   <trip id="trip_6511798196_7914822015_286" depart="1763.80" from="6511798196" to="7914822015"/>
   <trip id="trip_6511798196_7914822015_287" depart="3374.18" from="6511798196" to="7914822015"/>
   <trip id="trip_6511798196_7914822015_288" depart="2112.45" from="6511798196" to="7914822015"/>
   <trip id="trip_6511798196_7914822015_289" depart="1648.99" from="6511798196" to="7914822015"/>
   <trip id="trip_6511798196_7914822015_290" depart="2479.33" from="6511798196" to="7914822015"/>
   <trip id="trip_6511798196_7914822015_291" depart="1291.08" from="6511798196" to="7914822015"/>
   <trip id="trip_6511798196_7914822015_292" depart="1985.80" from="6511798196" to="7914822015"/>
   <trip id="trip_6511798196_7914822015_293" depart="2454.35" from="6511798196" to="7914822015"/>
   <trip id="trip_6511798196_7914822015_294" depart="3079.95" from="6511798196" to="7914822015"/>
   <trip id="trip_6511798196_7914822015_295" depart="1225.64" from="6511798196" to="7914822015"/>
   <trip id="trip_6511798196_7914822015_296" depart="270.77" from="6511798196" to="7914822015"/>
   <trip id="trip_6511798196_7914822015_297" depart="1360.14" from="6511798196" to="7914822015"/>
   <trip id="trip_6511798196_7914822015_298" depart="2942.49" from="6511798196" to="7914822015"/>
   <trip id="trip_6511798196_7914822015_299" depart="431.46" from="6511798196" to="7914822015"/>
   <trip id="trip_6511798196_7914822015_300" depart="3388.84" from="6511798196" to="7914822015"/>
   <trip id="trip_6511798196_7914822015_301" depart="2003.38" from="6511798196" to="7914822015"/>
   <trip id="trip_6511798196_7914822015_302" depart="3082.32" from="6511798196" to="7914822015"/>
   <trip id="trip_6511798196_7914822015_303" depart="1044.22" from="6511798196" to="7914822015"/>
   <trip id="trip_6511798196_7914822015_304" depart="1110.78" from="6511798196" to="7914822015"/>
   <trip id="trip_6511798196_7914822015_305" depart="814.02" from="6511798196" to="7914822015"/>
   <trip id="trip_6511798196_7914822015_306" depart="3350.78" from="6511798196" to="7914822015"/>