<?xml version="1.0" encoding="UTF-8"?>

<!-- generated on 2025-02-17 07:43:04 by Eclipse SUMO netconvert Version 1.21.0
<netconvertConfiguration xmlns:xsi="http://www.w3.org/2001/XMLSchema-instance" xsi:noNamespaceSchemaLocation="http://sumo.dlr.de/xsd/netconvertConfiguration.xsd">

    <input>
        <osm-files value="centro.osm"/>
    </input>

    <output>
        <output-file value="red_centro.net.xml"/>
    </output>

    <projection>
        <proj.utm value="true"/>
    </projection>

</netconvertConfiguration>
-->

<net version="1.20" junctionCornerDetail="5" limitTurnSpeed="5.50" xmlns:xsi="http://www.w3.org/2001/XMLSchema-instance" xsi:noNamespaceSchemaLocation="http://sumo.dlr.de/xsd/net_file.xsd">

    <location netOffset="-671276.19,-2285455.70" convBoundary="0.00,0.00,8262.06,4008.07" origBoundary="-103.355691,20.659848,-103.276560,20.696781" projParameter="+proj=utm +zone=13 +ellps=WGS84 +datum=WGS84 +units=m +no_defs"/>

    <type id="highway.cycleway" priority="1" numLanes="1" speed="5.56" allow="bicycle" oneway="0" width="2.00"/>
    <type id="highway.footway" priority="1" numLanes="1" speed="2.78" allow="pedestrian" oneway="1" width="2.00"/>
    <type id="highway.living_street" priority="2" numLanes="1" speed="2.78" disallow="tram rail_urban rail rail_electric rail_fast ship container cable_car subway aircraft wheelchair scooter drone" oneway="0"/>
    <type id="highway.pedestrian" priority="1" numLanes="1" speed="2.78" allow="pedestrian" oneway="1" width="2.00"/>
    <type id="highway.residential" priority="3" numLanes="1" speed="13.89" disallow="tram rail_urban rail rail_electric rail_fast ship container cable_car subway aircraft wheelchair scooter drone" oneway="0"/>
    <type id="highway.secondary" priority="11" numLanes="1" speed="27.78" disallow="tram rail_urban rail rail_electric rail_fast ship container cable_car subway aircraft wheelchair scooter drone" oneway="0"/>
    <type id="highway.service" priority="1" numLanes="1" speed="5.56" allow="pedestrian delivery bicycle" oneway="0"/>
    <type id="railway.subway" priority="18" numLanes="1" speed="27.78" allow="subway" oneway="1"/>

    <edge id=":11627229232_0" function="internal">
        <lane id=":11627229232_0_0" index="0" allow="bicycle" speed="5.56" length="5.06" width="2.00" shape="863.23,1696.26 863.58,1691.21"/>
    </edge>
    <edge id=":11627229233_0" function="internal">
        <lane id=":11627229233_0_0" index="0" allow="bicycle" speed="3.95" length="2.63" width="2.00" shape="874.37,1526.60 873.77,1524.03"/>
    </edge>
    <edge id=":11627229233_1" function="internal">
        <lane id=":11627229233_1_0" index="0" disallow="tram rail_urban rail rail_electric rail_fast ship container cable_car subway aircraft wheelchair scooter drone" speed="13.89" length="0.77" shape="874.34,1527.19 875.10,1527.22"/>
        <lane id=":11627229233_1_1" index="1" disallow="tram rail_urban rail rail_electric rail_fast ship container cable_car subway aircraft wheelchair scooter drone" speed="13.89" length="0.77" shape="874.18,1530.39 874.96,1530.42"/>
    </edge>
    <edge id=":11627229233_3" function="internal">
        <lane id=":11627229233_3_0" index="0" allow="bicycle" speed="5.56" length="9.44" width="2.00" shape="873.16,1533.45 873.77,1524.03"/>
    </edge>
    <edge id=":11627229233_4" function="internal">
        <lane id=":11627229233_4_0" index="0" allow="bicycle" speed="4.66" length="4.44" width="2.00" shape="873.16,1533.45 873.36,1531.84 873.73,1530.69 874.27,1530.02 874.99,1529.82"/>
    </edge>
    <edge id=":11627289618_0" function="internal">
        <lane id=":11627289618_0_0" index="0" disallow="tram rail_urban rail rail_electric rail_fast ship container cable_car subway aircraft wheelchair scooter drone" speed="27.78" length="0.24" shape="868.37,1620.96 868.59,1620.98"/>
        <lane id=":11627289618_0_1" index="1" disallow="tram rail_urban rail rail_electric rail_fast ship container cable_car subway aircraft wheelchair scooter drone" speed="27.78" length="0.24" shape="868.51,1617.77 868.74,1617.78"/>
        <lane id=":11627289618_0_2" index="2" disallow="tram rail_urban rail rail_electric rail_fast ship container cable_car subway aircraft wheelchair scooter drone" speed="27.78" length="0.24" shape="868.64,1614.57 868.89,1614.58"/>
        <lane id=":11627289618_0_3" index="3" disallow="tram rail_urban rail rail_electric rail_fast ship container cable_car subway aircraft wheelchair scooter drone" speed="27.78" length="0.24" shape="868.77,1611.37 869.04,1611.39"/>
    </edge>
    <edge id=":11627289618_4" function="internal">
        <lane id=":11627289618_4_0" index="0" allow="bicycle" speed="4.01" length="2.82" width="2.00" shape="868.80,1610.77 868.34,1610.50 868.31,1609.87 868.48,1609.06 868.61,1608.25"/>
    </edge>
    <edge id=":11627289618_5" function="internal">
        <lane id=":11627289618_5_0" index="0" allow="bicycle" speed="3.70" length="2.63" width="2.00" shape="867.65,1624.05 868.56,1621.58"/>
        <lane id=":11627289618_5_1" index="1" allow="bicycle" speed="5.17" length="5.77" width="2.00" shape="867.65,1624.05 868.71,1618.38"/>
    </edge>
    <edge id=":11627289618_7" function="internal">
        <lane id=":11627289618_7_0" index="0" allow="bicycle" speed="5.56" length="15.83" width="2.00" shape="867.65,1624.05 868.61,1608.25"/>
    </edge>
    <edge id=":11627323334_0" function="internal">
        <lane id=":11627323334_0_0" index="0" allow="bicycle" speed="5.56" length="5.06" width="2.00" shape="866.27,1691.30 865.95,1696.35"/>
    </edge>
    <edge id=":11627323335_0" function="internal">
        <lane id=":11627323335_0_0" index="0" allow="bicycle" speed="4.11" length="2.95" width="2.00" shape="871.06,1621.69 870.48,1621.91 870.17,1622.53 870.03,1623.34 869.98,1624.15"/>
    </edge>
    <edge id=":11627323335_1" function="internal">
        <lane id=":11627323335_1_0" index="0" disallow="tram rail_urban rail rail_electric rail_fast ship container cable_car subway aircraft wheelchair scooter drone" speed="27.78" length="1.30" shape="871.09,1621.09 869.79,1621.03"/>
        <lane id=":11627323335_1_1" index="1" disallow="tram rail_urban rail rail_electric rail_fast ship container cable_car subway aircraft wheelchair scooter drone" speed="27.78" length="1.30" shape="871.23,1617.89 869.94,1617.83"/>
        <lane id=":11627323335_1_2" index="2" disallow="tram rail_urban rail rail_electric rail_fast ship container cable_car subway aircraft wheelchair scooter drone" speed="27.78" length="1.30" shape="871.38,1614.69 870.08,1614.63"/>
        <lane id=":11627323335_1_3" index="3" disallow="tram rail_urban rail rail_electric rail_fast ship container cable_car subway aircraft wheelchair scooter drone" speed="27.78" length="1.30" shape="871.52,1611.50 870.23,1611.44"/>
    </edge>
    <edge id=":11627323335_5" function="internal">
        <lane id=":11627323335_5_0" index="0" allow="bicycle" speed="5.56" length="15.85" width="2.00" shape="871.09,1608.33 869.98,1624.15"/>
    </edge>
    <edge id=":11627323335_6" function="internal">
        <lane id=":11627323335_6_0" index="0" allow="bicycle" speed="5.78" length="7.09" width="2.00" shape="871.09,1608.33 871.04,1609.84 870.92,1612.18 870.63,1614.32 870.06,1615.23"/>
        <lane id=":11627323335_6_1" index="1" allow="bicycle" speed="4.48" length="4.00" width="2.00" shape="871.09,1608.33 871.06,1609.34 870.99,1610.58 870.75,1611.62 870.21,1612.04"/>
    </edge>
    <edge id=":11627323336_0" function="internal">
        <lane id=":11627323336_0_0" index="0" allow="bicycle" speed="3.77" length="2.85" width="2.00" shape="878.40,1524.21 878.21,1525.03 877.95,1525.85 877.91,1526.49 878.33,1526.77"/>
    </edge>
    <edge id=":11627323336_1" function="internal">
        <lane id=":11627323336_1_0" index="0" allow="bicycle" speed="5.56" length="9.50" width="2.00" shape="878.40,1524.21 877.50,1533.67"/>
    </edge>
    <edge id=":11627323336_2" function="internal">
        <lane id=":11627323336_2_0" index="0" disallow="tram rail_urban rail rail_electric rail_fast ship container cable_car subway aircraft wheelchair scooter drone" speed="13.89" length="0.76" shape="877.56,1527.33 878.30,1527.37"/>
        <lane id=":11627323336_2_1" index="1" disallow="tram rail_urban rail rail_electric rail_fast ship container cable_car subway aircraft wheelchair scooter drone" speed="13.89" length="0.76" shape="877.39,1530.53 878.16,1530.56"/>
    </edge>
    <edge id=":11627323336_4" function="internal">
        <lane id=":11627323336_4_0" index="0" allow="bicycle" speed="4.00" length="2.83" width="2.00" shape="877.36,1531.13 877.81,1531.41 877.84,1532.04 877.66,1532.86 877.50,1533.67"/>
    </edge>
    <edge id=":1224744792_0" function="internal">
        <lane id=":1224744792_0_0" index="0" disallow="tram rail_urban rail rail_electric rail_fast ship container cable_car subway aircraft wheelchair scooter drone" speed="13.89" length="0.28" shape="442.60,1678.05 442.88,1678.06"/>
    </edge>
    <edge id=":130153753_0" function="internal">
        <lane id=":130153753_0_0" index="0" disallow="tram rail_urban rail rail_electric rail_fast ship container cable_car subway aircraft wheelchair scooter drone" speed="6.49" length="9.09" shape="961.56,1625.16 959.06,1625.40 957.26,1626.38 956.14,1628.09 955.72,1630.54"/>
    </edge>
    <edge id=":130153753_1" function="internal">
        <lane id=":130153753_1_0" index="0" disallow="tram rail_urban rail rail_electric rail_fast ship container cable_car subway aircraft wheelchair scooter drone" speed="27.78" length="11.26" shape="961.56,1625.16 950.31,1624.66"/>
        <lane id=":130153753_1_1" index="1" disallow="tram rail_urban rail rail_electric rail_fast ship container cable_car subway aircraft wheelchair scooter drone" speed="27.78" length="11.26" shape="961.70,1621.96 950.45,1621.46"/>
        <lane id=":130153753_1_2" index="2" disallow="tram rail_urban rail rail_electric rail_fast ship container cable_car subway aircraft wheelchair scooter drone" speed="27.78" length="11.26" shape="961.84,1618.77 950.60,1618.27"/>
        <lane id=":130153753_1_3" index="3" disallow="tram rail_urban rail rail_electric rail_fast ship container cable_car subway aircraft wheelchair scooter drone" speed="27.78" length="11.26" shape="961.98,1615.57 950.74,1615.07"/>
    </edge>
    <edge id=":130153753_5" function="internal">
        <lane id=":130153753_5_0" index="0" disallow="tram rail_urban rail rail_electric rail_fast ship container cable_car subway aircraft wheelchair scooter drone" speed="13.89" length="20.87" shape="956.74,1609.69 955.72,1630.54"/>
    </edge>
    <edge id=":130153753_6" function="internal">
        <lane id=":130153753_6_0" index="0" disallow="tram rail_urban rail rail_electric rail_fast ship container cable_car subway aircraft wheelchair scooter drone" speed="7.41" length="11.79" shape="956.74,1609.69 956.12,1613.54 954.89,1616.25 953.05,1617.82 950.60,1618.27"/>
        <lane id=":130153753_6_1" index="1" disallow="tram rail_urban rail rail_electric rail_fast ship container cable_car subway aircraft wheelchair scooter drone" speed="6.60" length="9.14" shape="956.74,1609.69 956.22,1612.14 955.04,1613.85 953.22,1614.83 950.74,1615.07"/>
    </edge>
    <edge id=":1341846732_0" function="internal">
        <lane id=":1341846732_0_0" index="0" disallow="tram rail_urban rail rail_electric rail_fast ship container cable_car subway aircraft wheelchair scooter drone" speed="13.89" length="0.29" shape="634.11,1437.02 634.09,1437.31"/>
    </edge>
    <edge id=":1341846736_0" function="internal">
        <lane id=":1341846736_0_0" index="0" disallow="tram rail_urban rail rail_electric rail_fast ship container cable_car subway aircraft wheelchair scooter drone" speed="6.52" length="9.00" shape="631.82,1611.16 629.37,1611.41 627.59,1612.38 626.46,1614.08 625.99,1616.51"/>
    </edge>
    <edge id=":1341846736_1" function="internal">
        <lane id=":1341846736_1_0" index="0" disallow="tram rail_urban rail rail_electric rail_fast ship container cable_car subway aircraft wheelchair scooter drone" speed="27.78" length="11.13" shape="631.82,1611.16 620.70,1610.70"/>
        <lane id=":1341846736_1_1" index="1" disallow="tram rail_urban rail rail_electric rail_fast ship container cable_car subway aircraft wheelchair scooter drone" speed="27.78" length="11.13" shape="631.95,1607.97 620.83,1607.51"/>
        <lane id=":1341846736_1_2" index="2" disallow="tram rail_urban rail rail_electric rail_fast ship container cable_car subway aircraft wheelchair scooter drone" speed="27.78" length="11.13" shape="632.08,1604.77 620.96,1604.31"/>
        <lane id=":1341846736_1_3" index="3" disallow="tram rail_urban rail rail_electric rail_fast ship container cable_car subway aircraft wheelchair scooter drone" speed="27.78" length="11.13" shape="632.21,1601.57 621.09,1601.11"/>
    </edge>
    <edge id=":1341846736_5" function="internal">
        <lane id=":1341846736_5_0" index="0" disallow="tram rail_urban rail rail_electric rail_fast ship container cable_car subway aircraft wheelchair scooter drone" speed="8.34" length="20.75" shape="626.85,1595.77 625.99,1616.51"/>
    </edge>
    <edge id=":1341846736_6" function="internal">
        <lane id=":1341846736_6_0" index="0" disallow="tram rail_urban rail rail_electric rail_fast ship container cable_car subway aircraft wheelchair scooter drone" speed="7.29" length="11.69" shape="626.85,1595.77 626.38,1599.59 625.24,1602.29 623.43,1603.86 620.96,1604.31"/>
        <lane id=":1341846736_6_1" index="1" disallow="tram rail_urban rail rail_electric rail_fast ship container cable_car subway aircraft wheelchair scooter drone" speed="6.47" length="8.98" shape="626.85,1595.77 626.42,1598.19 625.32,1599.89 623.54,1600.86 621.09,1601.11"/>
    </edge>
    <edge id=":1341846739_0" function="internal">
        <lane id=":1341846739_0_0" index="0" disallow="tram rail_urban rail rail_electric rail_fast ship container cable_car subway aircraft wheelchair scooter drone" speed="6.47" length="9.03" shape="629.84,1510.14 630.05,1512.61 631.00,1514.41 632.70,1515.53 635.14,1515.98"/>
    </edge>
    <edge id=":1341846739_1" function="internal">
        <lane id=":1341846739_1_0" index="0" disallow="tram rail_urban rail rail_electric rail_fast ship container cable_car subway aircraft wheelchair scooter drone" speed="13.89" length="14.44" shape="629.84,1510.14 629.19,1524.56"/>
    </edge>
    <edge id=":1341846739_2" function="internal">
        <lane id=":1341846739_2_0" index="0" disallow="tram rail_urban rail rail_electric rail_fast ship container cable_car subway aircraft wheelchair scooter drone" speed="13.89" length="11.22" shape="623.94,1515.51 635.14,1515.98"/>
        <lane id=":1341846739_2_1" index="1" disallow="tram rail_urban rail rail_electric rail_fast ship container cable_car subway aircraft wheelchair scooter drone" speed="13.89" length="11.22" shape="623.80,1518.71 635.01,1519.18"/>
    </edge>
    <edge id=":1341846739_4" function="internal">
        <lane id=":1341846739_4_0" index="0" disallow="tram rail_urban rail rail_electric rail_fast ship container cable_car subway aircraft wheelchair scooter drone" speed="6.54" length="9.05" shape="623.80,1518.71 626.23,1519.17 627.93,1520.29 628.92,1522.09 629.19,1524.56"/>
    </edge>
    <edge id=":1341846741_0" function="internal">
        <lane id=":1341846741_0_0" index="0" disallow="tram rail_urban rail rail_electric rail_fast ship container cable_car subway aircraft wheelchair scooter drone" speed="13.89" length="0.29" shape="638.58,1355.00 638.57,1355.28"/>
    </edge>
    <edge id=":1341846753_0" function="internal">
        <lane id=":1341846753_0_0" index="0" disallow="tram rail_urban rail rail_electric rail_fast ship container cable_car subway aircraft wheelchair scooter drone" speed="13.89" length="0.30" shape="641.70,1274.13 641.69,1274.43"/>
    </edge>
    <edge id=":1369105715_0" function="internal">
        <lane id=":1369105715_0_0" index="0" disallow="tram rail_urban rail rail_electric rail_fast ship container cable_car subway aircraft wheelchair scooter drone" speed="2.78" length="11.20" shape="622.81,1679.31 622.24,1690.50"/>
    </edge>
    <edge id=":1369105715_1" function="internal">
        <lane id=":1369105715_1_0" index="0" disallow="tram rail_urban rail rail_electric rail_fast ship container cable_car subway aircraft wheelchair scooter drone" speed="6.48" length="9.03" shape="616.91,1684.67 619.35,1685.11 621.05,1686.23 622.01,1688.03 622.24,1690.50"/>
    </edge>
    <edge id=":1369105748_0" function="internal">
        <lane id=":1369105748_0_0" index="0" disallow="tram rail_urban rail rail_electric rail_fast ship container cable_car subway aircraft wheelchair scooter drone" speed="3.65" length="4.67" shape="1329.50,1704.69 1330.77,1705.38 1331.24,1706.15 1330.91,1706.98 1329.79,1707.88"/>
    </edge>
    <edge id=":1369529286_0" function="internal">
        <lane id=":1369529286_0_0" index="0" disallow="tram rail_urban rail rail_electric rail_fast ship container cable_car subway aircraft wheelchair scooter drone" speed="6.56" length="9.11" shape="712.25,1519.06 714.76,1518.82 716.59,1517.84 717.75,1516.15 718.23,1513.73"/>
    </edge>
    <edge id=":1369529286_1" function="internal">
        <lane id=":1369529286_1_0" index="0" disallow="tram rail_urban rail rail_electric rail_fast ship container cable_car subway aircraft wheelchair scooter drone" speed="13.89" length="11.26" shape="712.25,1519.06 723.50,1519.51"/>
        <lane id=":1369529286_1_1" index="1" disallow="tram rail_urban rail rail_electric rail_fast ship container cable_car subway aircraft wheelchair scooter drone" speed="13.89" length="11.26" shape="712.12,1522.26 723.38,1522.71"/>
    </edge>
    <edge id=":1369529286_3" function="internal">
        <lane id=":1369529286_3_0" index="0" disallow="tram rail_urban rail rail_electric rail_fast ship container cable_car subway aircraft wheelchair scooter drone" speed="13.89" length="14.38" shape="717.30,1528.08 718.23,1513.73"/>
    </edge>
    <edge id=":1369529286_4" function="internal">
        <lane id=":1369529286_4_0" index="0" disallow="tram rail_urban rail rail_electric rail_fast ship container cable_car subway aircraft wheelchair scooter drone" speed="6.64" length="9.18" shape="717.30,1528.08 717.84,1525.65 719.03,1523.94 720.88,1522.96 723.38,1522.71"/>
    </edge>
    <edge id=":1369529287_0" function="internal">
        <lane id=":1369529287_0_0" index="0" disallow="tram rail_urban rail rail_electric rail_fast ship container cable_car subway aircraft wheelchair scooter drone" speed="13.89" length="0.29" shape="722.11,1440.21 722.12,1439.92"/>
    </edge>
    <edge id=":1369529291_0" function="internal">
        <lane id=":1369529291_0_0" index="0" disallow="tram rail_urban rail rail_electric rail_fast ship container cable_car subway aircraft wheelchair scooter drone" speed="13.89" length="0.10" shape="727.32,1358.42 727.32,1358.42"/>
    </edge>
    <edge id=":1369529306_0" function="internal">
        <lane id=":1369529306_0_0" index="0" disallow="tram rail_urban rail rail_electric rail_fast ship container cable_car subway aircraft wheelchair scooter drone" speed="13.89" length="0.30" shape="732.76,1273.33 732.78,1273.03"/>
    </edge>
    <edge id=":1369529335_0" function="internal">
        <lane id=":1369529335_0_0" index="0" disallow="tram rail_urban rail rail_electric rail_fast ship container cable_car subway aircraft wheelchair scooter drone" speed="27.78" length="11.20" shape="716.63,1614.67 705.43,1614.21"/>
        <lane id=":1369529335_0_1" index="1" disallow="tram rail_urban rail rail_electric rail_fast ship container cable_car subway aircraft wheelchair scooter drone" speed="27.78" length="11.20" shape="716.76,1611.47 705.57,1611.01"/>
        <lane id=":1369529335_0_2" index="2" disallow="tram rail_urban rail rail_electric rail_fast ship container cable_car subway aircraft wheelchair scooter drone" speed="27.78" length="11.20" shape="716.89,1608.28 705.70,1607.81"/>
        <lane id=":1369529335_0_3" index="3" disallow="tram rail_urban rail rail_electric rail_fast ship container cable_car subway aircraft wheelchair scooter drone" speed="27.78" length="11.20" shape="717.02,1605.08 705.83,1604.62"/>
    </edge>
    <edge id=":1369529335_4" function="internal">
        <lane id=":1369529335_4_0" index="0" disallow="tram rail_urban rail rail_electric rail_fast ship container cable_car subway aircraft wheelchair scooter drone" speed="6.43" length="9.03" shape="717.02,1605.08 714.58,1604.63 712.89,1603.49 711.97,1601.69 711.81,1599.21"/>
    </edge>
    <edge id=":1369529345_0" function="internal">
        <lane id=":1369529345_0_0" index="0" disallow="tram rail_urban rail rail_electric rail_fast ship container cable_car subway aircraft wheelchair scooter drone" speed="13.89" length="0.29" shape="346.96,1676.30 347.25,1676.31"/>
    </edge>
    <edge id=":1459071594_0" function="internal">
        <lane id=":1459071594_0_0" index="0" disallow="tram rail_urban rail rail_electric rail_fast ship container cable_car subway aircraft wheelchair scooter drone" speed="13.89" length="0.30" shape="533.62,1681.43 533.92,1681.44"/>
    </edge>
    <edge id=":1460325845_0" function="internal">
        <lane id=":1460325845_0_0" index="0" disallow="tram rail_urban rail rail_electric rail_fast ship container cable_car subway aircraft wheelchair scooter drone" speed="6.64" length="9.13" shape="1136.67,1633.13 1134.15,1633.36 1132.28,1634.31 1131.06,1635.97 1130.49,1638.35"/>
    </edge>
    <edge id=":1460325845_1" function="internal">
        <lane id=":1460325845_1_0" index="0" disallow="tram rail_urban rail rail_electric rail_fast ship container cable_car subway aircraft wheelchair scooter drone" speed="27.78" length="11.17" shape="1136.67,1633.13 1125.50,1632.62"/>
        <lane id=":1460325845_1_1" index="1" disallow="tram rail_urban rail rail_electric rail_fast ship container cable_car subway aircraft wheelchair scooter drone" speed="27.78" length="11.17" shape="1136.82,1629.93 1125.65,1629.42"/>
        <lane id=":1460325845_1_2" index="2" disallow="tram rail_urban rail rail_electric rail_fast ship container cable_car subway aircraft wheelchair scooter drone" speed="27.78" length="11.17" shape="1136.96,1626.74 1125.80,1626.22"/>
        <lane id=":1460325845_1_3" index="3" disallow="tram rail_urban rail rail_electric rail_fast ship container cable_car subway aircraft wheelchair scooter drone" speed="27.78" length="11.17" shape="1137.10,1623.54 1125.96,1623.03"/>
    </edge>
    <edge id=":1460325845_5" function="internal">
        <lane id=":1460325845_5_0" index="0" disallow="tram rail_urban rail rail_electric rail_fast ship container cable_car subway aircraft wheelchair scooter drone" speed="13.89" length="20.53" shape="1131.96,1617.87 1130.49,1638.35"/>
    </edge>
    <edge id=":1460325845_6" function="internal">
        <lane id=":1460325845_6_0" index="0" disallow="tram rail_urban rail rail_electric rail_fast ship container cable_car subway aircraft wheelchair scooter drone" speed="7.32" length="11.67" shape="1131.96,1617.87 1131.40,1621.63 1130.19,1624.27 1128.33,1625.80 1125.80,1626.22"/>
        <lane id=":1460325845_6_1" index="1" disallow="tram rail_urban rail rail_electric rail_fast ship container cable_car subway aircraft wheelchair scooter drone" speed="6.51" length="9.01" shape="1131.96,1617.87 1131.47,1620.23 1130.31,1621.87 1128.47,1622.81 1125.96,1623.03"/>
    </edge>
    <edge id=":1579128344_0" function="internal">
        <lane id=":1579128344_0_0" index="0" disallow="tram rail_urban rail rail_electric rail_fast ship container cable_car subway aircraft wheelchair scooter drone" speed="6.84" length="9.53" shape="1130.31,1705.49 1127.70,1705.76 1125.75,1706.76 1124.45,1708.49 1123.82,1710.96"/>
    </edge>
    <edge id=":1579128344_1" function="internal">
        <lane id=":1579128344_1_0" index="0" disallow="tram rail_urban rail rail_electric rail_fast ship container cable_car subway aircraft wheelchair scooter drone" speed="13.89" length="11.60" shape="1130.31,1705.49 1118.72,1705.05"/>
    </edge>
    <edge id=":1579128344_2" function="internal">
        <lane id=":1579128344_2_0" index="0" disallow="tram rail_urban rail rail_electric rail_fast ship container cable_car subway aircraft wheelchair scooter drone" speed="3.65" length="1.44" shape="1130.31,1705.49 1129.14,1704.65"/>
    </edge>
    <edge id=":1579128344_9" function="internal">
        <lane id=":1579128344_9_0" index="0" disallow="tram rail_urban rail rail_electric rail_fast ship container cable_car subway aircraft wheelchair scooter drone" speed="3.65" length="3.23" shape="1129.14,1704.65 1128.77,1703.84 1129.20,1703.05 1130.43,1702.30"/>
    </edge>
    <edge id=":1579128344_3" function="internal">
        <lane id=":1579128344_3_0" index="0" disallow="tram rail_urban rail rail_electric rail_fast ship container cable_car subway aircraft wheelchair scooter drone" speed="6.39" length="9.04" shape="1125.25,1696.43 1125.38,1698.92 1126.29,1700.73 1127.97,1701.86 1130.43,1702.30"/>
    </edge>
    <edge id=":1579128344_4" function="internal">
        <lane id=":1579128344_4_0" index="0" disallow="tram rail_urban rail rail_electric rail_fast ship container cable_car subway aircraft wheelchair scooter drone" speed="13.89" length="14.60" shape="1125.25,1696.43 1123.82,1710.96"/>
    </edge>
    <edge id=":1579128344_5" function="internal">
        <lane id=":1579128344_5_0" index="0" disallow="tram rail_urban rail rail_electric rail_fast ship container cable_car subway aircraft wheelchair scooter drone" speed="7.55" length="12.05" shape="1125.25,1696.43 1124.54,1700.29 1123.22,1703.02 1121.28,1704.60 1118.72,1705.05"/>
    </edge>
    <edge id=":1579128344_6" function="internal">
        <lane id=":1579128344_6_0" index="0" disallow="tram rail_urban rail rail_electric rail_fast ship container cable_car subway aircraft wheelchair scooter drone" speed="13.89" length="11.58" shape="1118.86,1701.86 1130.43,1702.30"/>
    </edge>
    <edge id=":1579128344_7" function="internal">
        <lane id=":1579128344_7_0" index="0" disallow="tram rail_urban rail rail_electric rail_fast ship container cable_car subway aircraft wheelchair scooter drone" speed="7.20" length="2.61" shape="1118.86,1701.86 1121.38,1702.52"/>
    </edge>
    <edge id=":1579128344_8" function="internal">
        <lane id=":1579128344_8_0" index="0" disallow="tram rail_urban rail rail_electric rail_fast ship container cable_car subway aircraft wheelchair scooter drone" speed="3.65" length="1.44" shape="1118.86,1701.86 1120.02,1702.71"/>
    </edge>
    <edge id=":1579128344_10" function="internal">
        <lane id=":1579128344_10_0" index="0" disallow="tram rail_urban rail rail_electric rail_fast ship container cable_car subway aircraft wheelchair scooter drone" speed="7.20" length="9.23" shape="1121.38,1702.52 1123.05,1704.26 1123.86,1707.07 1123.82,1710.96"/>
    </edge>
    <edge id=":1579128344_11" function="internal">
        <lane id=":1579128344_11_0" index="0" disallow="tram rail_urban rail rail_electric rail_fast ship container cable_car subway aircraft wheelchair scooter drone" speed="3.65" length="3.23" shape="1120.02,1702.71 1120.39,1703.52 1119.96,1704.30 1118.72,1705.05"/>
    </edge>
    <edge id=":1579128411_0" function="internal">
        <lane id=":1579128411_0_0" index="0" disallow="tram rail_urban rail rail_electric rail_fast ship container cable_car subway aircraft wheelchair scooter drone" speed="6.04" length="1.01" shape="1044.20,1701.97 1043.23,1701.66"/>
    </edge>
    <edge id=":1579128411_1" function="internal">
        <lane id=":1579128411_1_0" index="0" disallow="tram rail_urban rail rail_electric rail_fast ship container cable_car subway aircraft wheelchair scooter drone" speed="3.65" length="1.00" shape="1044.20,1701.97 1043.38,1701.38"/>
    </edge>
    <edge id=":1579128411_4" function="internal">
        <lane id=":1579128411_4_0" index="0" disallow="tram rail_urban rail rail_electric rail_fast ship container cable_car subway aircraft wheelchair scooter drone" speed="6.04" length="6.85" shape="1043.23,1701.66 1042.79,1701.52 1041.86,1700.29 1041.40,1698.28 1041.42,1695.49"/>
    </edge>
    <edge id=":1579128411_5" function="internal">
        <lane id=":1579128411_5_0" index="0" disallow="tram rail_urban rail rail_electric rail_fast ship container cable_car subway aircraft wheelchair scooter drone" speed="3.65" length="3.67" shape="1043.38,1701.38 1043.03,1701.12 1042.66,1700.31 1043.10,1699.53 1044.33,1698.78"/>
    </edge>
    <edge id=":1579128411_2" function="internal">
        <lane id=":1579128411_2_0" index="0" disallow="tram rail_urban rail rail_electric rail_fast ship container cable_car subway aircraft wheelchair scooter drone" speed="13.89" length="9.43" shape="1040.76,1704.90 1041.42,1695.49"/>
    </edge>
    <edge id=":1579128411_3" function="internal">
        <lane id=":1579128411_3_0" index="0" disallow="tram rail_urban rail rail_electric rail_fast ship container cable_car subway aircraft wheelchair scooter drone" speed="6.15" length="7.83" shape="1040.76,1704.90 1041.12,1702.17 1041.84,1700.24 1042.91,1699.11 1044.33,1698.78"/>
    </edge>
    <edge id=":1579128421_0" function="internal">
        <lane id=":1579128421_0_0" index="0" disallow="tram rail_urban rail rail_electric rail_fast ship container cable_car subway aircraft wheelchair scooter drone" speed="13.89" length="5.02" shape="953.98,1694.53 953.81,1699.55"/>
    </edge>
    <edge id=":1810842179_0" function="internal">
        <lane id=":1810842179_0_0" index="0" disallow="tram rail_urban rail rail_electric rail_fast ship container cable_car subway aircraft wheelchair scooter drone" speed="27.78" length="11.53" shape="1052.52,1629.16 1041.02,1628.64"/>