<?xml version="1.0" encoding="UTF-8"?>

<!-- generated on 2025-02-17 07:45:00 by Eclipse SUMO netconvert Version 1.21.0
<netconvertConfiguration xmlns:xsi="http://www.w3.org/2001/XMLSchema-instance" xsi:noNamespaceSchemaLocation="http://sumo.dlr.de/xsd/netconvertConfiguration.xsd">

    <input>
        <osm-files value="hidalgo-federalismo.osm"/>
    </input>

    <output>
        <output-file value="red_hidalgo-federalismo.net.xml"/>
    </output>

    <projection>
        <proj.utm value="true"/>
    </projection>

</netconvertConfiguration>
-->

<net version="1.20" junctionCornerDetail="5" limitTurnSpeed="5.50" xmlns:xsi="http://www.w3.org/2001/XMLSchema-instance" xsi:noNamespaceSchemaLocation="http://sumo.dlr.de/xsd/net_file.xsd">

    <location netOffset="-668143.68,-2285366.26" convBoundary="0.00,0.00,11394.56,5679.03" origBoundary="-103.385739,20.659836,-103.276560,20.711113" projParameter="+proj=utm +zone=13 +ellps=WGS84 +datum=WGS84 +units=m +no_defs"/>

    <type id="highway.cycleway" priority="1" numLanes="1" speed="5.56" allow="bicycle" oneway="0" width="2.00"/>
    <type id="highway.footway" priority="1" numLanes="1" speed="2.78" allow="pedestrian" oneway="1" width="2.00"/>
    <type id="highway.living_street" priority="2" numLanes="1" speed="2.78" disallow="tram rail_urban rail rail_electric rail_fast ship container cable_car subway aircraft wheelchair scooter drone" oneway="0"/>
    <type id="highway.pedestrian" priority="1" numLanes="1" speed="2.78" allow="pedestrian" oneway="1" width="2.00"/>
    <type id="highway.primary" priority="12" numLanes="2" speed="27.78" disallow="tram rail_urban rail rail_electric rail_fast ship container cable_car subway aircraft wheelchair scooter drone" oneway="0"/>
    <type id="highway.residential" priority="3" numLanes="1" speed="13.89" disallow="tram rail_urban rail rail_electric rail_fast ship container cable_car subway aircraft wheelchair scooter drone" oneway="0"/>
    <type id="highway.secondary" priority="11" numLanes="1" speed="27.78" disallow="tram rail_urban rail rail_electric rail_fast ship container cable_car subway aircraft wheelchair scooter drone" oneway="0"/>
    <type id="highway.service" priority="1" numLanes="1" speed="5.56" allow="pedestrian delivery bicycle" oneway="0"/>
    <type id="railway.light_rail" priority="19" numLanes="1" speed="27.78" allow="rail_urban" oneway="1"/>
    <type id="railway.subway" priority="18" numLanes="1" speed="27.78" allow="subway" oneway="1"/>

    <edge id=":10628325114_0" function="internal">
        <lane id=":10628325114_0_0" index="0" allow="bicycle" speed="4.40" length="4.05" width="2.00" shape="2833.44,1908.72 2834.55,1908.58 2835.33,1908.11 2835.79,1907.33 2835.92,1906.22"/>
    </edge>
    <edge id=":10628325114_1" function="internal">
        <lane id=":10628325114_1_0" index="0" allow="bicycle" speed="5.56" length="6.20" width="2.00" shape="2833.44,1908.72 2839.65,1908.80"/>
    </edge>
    <edge id=":10628325114_2" function="internal">
        <lane id=":10628325114_2_0" index="0" disallow="tram rail_urban rail rail_electric rail_fast ship container cable_car subway aircraft wheelchair scooter drone" speed="13.89" length="0.18" shape="2836.69,1906.14 2836.52,1906.21"/>
    </edge>
    <edge id=":10628325114_3" function="internal">
        <lane id=":10628325114_3_0" index="0" allow="bicycle" speed="4.43" length="3.52" width="2.00" shape="2837.29,1906.17 2839.65,1908.80"/>
    </edge>
    <edge id=":10628325115_0" function="internal">
        <lane id=":10628325115_0_0" index="0" allow="bicycle" speed="4.78" length="4.21" width="2.00" shape="2949.46,1909.19 2949.65,1910.34 2950.15,1911.17 2950.95,1911.68 2952.05,1911.87"/>
    </edge>
    <edge id=":10628325115_1" function="internal">
        <lane id=":10628325115_1_0" index="0" disallow="tram rail_urban rail rail_electric rail_fast ship container cable_car subway aircraft wheelchair scooter drone" speed="13.89" length="0.23" shape="2948.86,1909.20 2948.95,1908.99"/>
    </edge>
    <edge id=":10628325115_2" function="internal">
        <lane id=":10628325115_2_0" index="0" allow="bicycle" speed="5.56" length="6.28" width="2.00" shape="2945.78,1911.71 2952.05,1911.87"/>
    </edge>
    <edge id=":10628325115_3" function="internal">
        <lane id=":10628325115_3_0" index="0" allow="bicycle" speed="4.76" length="4.65" width="2.00" shape="2945.78,1911.71 2949.55,1909.00"/>
    </edge>
    <edge id=":10628342545_0" function="internal">
        <lane id=":10628342545_0_0" index="0" disallow="tram rail_urban rail rail_electric rail_fast ship container cable_car subway aircraft wheelchair scooter drone" speed="27.78" length="0.41" shape="2741.49,1905.19 2741.48,1905.07 2741.46,1905.00 2741.45,1904.92 2741.44,1904.81"/>
        <lane id=":10628342545_0_1" index="1" disallow="tram rail_urban rail rail_electric rail_fast ship container cable_car subway aircraft wheelchair scooter drone" speed="27.78" length="0.41" shape="2744.69,1905.17 2744.68,1905.04 2744.66,1904.95 2744.65,1904.86 2744.64,1904.73"/>
    </edge>
    <edge id=":10628342545_2" function="internal">
        <lane id=":10628342545_2_0" index="0" allow="bicycle" speed="6.54" length="4.37" width="2.00" shape="2745.29,1905.17 2749.50,1906.34"/>
    </edge>
    <edge id=":10628342545_9" function="internal">
        <lane id=":10628342545_9_0" index="0" allow="bicycle" speed="6.54" length="4.90" width="2.00" shape="2749.50,1906.34 2754.22,1907.66"/>
    </edge>
    <edge id=":10628342545_3" function="internal">
        <lane id=":10628342545_3_0" index="0" allow="bicycle" speed="4.91" length="4.55" width="2.00" shape="2751.63,1904.56 2751.82,1905.90 2752.32,1906.87 2753.12,1907.45 2754.22,1907.66"/>
    </edge>
    <edge id=":10628342545_4" function="internal">
        <lane id=":10628342545_4_0" index="0" disallow="tram rail_urban rail rail_electric rail_fast ship container cable_car subway aircraft wheelchair scooter drone" speed="27.78" length="0.53" shape="2751.03,1904.58 2751.09,1905.13"/>
        <lane id=":10628342545_4_1" index="1" disallow="tram rail_urban rail rail_electric rail_fast ship container cable_car subway aircraft wheelchair scooter drone" speed="27.78" length="0.53" shape="2747.83,1904.65 2747.85,1904.80 2747.86,1904.90 2747.88,1905.00 2747.89,1905.15"/>
    </edge>
    <edge id=":10628342545_6" function="internal">
        <lane id=":10628342545_6_0" index="0" allow="bicycle" speed="4.37" length="4.06" width="2.00" shape="2738.34,1907.29 2739.46,1907.17 2740.24,1906.72 2740.70,1905.93 2740.84,1904.82"/>
    </edge>
    <edge id=":10628342545_7" function="internal">
        <lane id=":10628342545_7_0" index="0" allow="bicycle" speed="5.56" length="15.89" width="2.00" shape="2738.34,1907.29 2754.22,1907.66"/>
    </edge>
    <edge id=":10628342545_8" function="internal">
        <lane id=":10628342545_8_0" index="0" allow="bicycle" speed="6.90" length="10.37" width="2.00" shape="2738.34,1907.29 2748.49,1905.15"/>
    </edge>
    <edge id=":12089480280_0" function="internal">
        <lane id=":12089480280_0_0" index="0" allow="bicycle" speed="4.56" length="4.15" width="2.00" shape="3246.75,1918.35 3246.94,1919.46 3247.43,1920.27 3248.24,1920.77 3249.35,1920.95"/>
    </edge>
    <edge id=":12089480280_1" function="internal">
        <lane id=":12089480280_1_0" index="0" allow="bicycle" speed="5.56" length="1.71" width="2.00" shape="3246.75,1918.35 3246.79,1920.06"/>
    </edge>
    <edge id=":12089480280_2" function="internal">
        <lane id=":12089480280_2_0" index="0" allow="bicycle" speed="5.56" length="3.62" width="2.00" shape="3245.74,1920.87 3249.35,1920.95"/>
    </edge>
    <edge id=":12089480280_3" function="internal">
        <lane id=":12089480280_3_0" index="0" allow="bicycle" speed="2.92" length="1.33" width="2.00" shape="3245.74,1920.87 3246.79,1920.06"/>
    </edge>
    <edge id=":12089480281_0" function="internal">
        <lane id=":12089480281_0_0" index="0" allow="bicycle" speed="4.25" length="3.18" width="2.00" shape="3244.48,1918.12 3244.54,1919.31 3244.74,1920.16 3245.08,1920.68 3245.54,1920.86"/>
    </edge>
    <edge id=":12089480281_1" function="internal">
        <lane id=":12089480281_1_0" index="0" disallow="tram rail_urban rail rail_electric rail_fast ship container cable_car subway aircraft wheelchair scooter drone" speed="27.78" length="0.54" shape="3243.88,1918.12 3243.88,1918.66"/>
        <lane id=":12089480281_1_1" index="1" disallow="tram rail_urban rail rail_electric rail_fast ship container cable_car subway aircraft wheelchair scooter drone" speed="27.78" length="0.54" shape="3240.68,1918.13 3240.68,1918.67"/>
        <lane id=":12089480281_1_2" index="2" disallow="tram rail_urban rail rail_electric rail_fast ship container cable_car subway aircraft wheelchair scooter drone" speed="27.78" length="0.54" shape="3237.48,1918.14 3237.48,1918.68"/>
    </edge>
    <edge id=":12089480281_4" function="internal">
        <lane id=":12089480281_4_0" index="0" allow="bicycle" speed="5.56" length="11.18" width="2.00" shape="3234.36,1920.61 3245.54,1920.86"/>
    </edge>
    <edge id=":12089480281_5" function="internal">
        <lane id=":12089480281_5_0" index="0" allow="bicycle" speed="5.79" length="7.19" width="2.00" shape="3234.36,1920.61 3241.28,1918.67"/>
        <lane id=":12089480281_5_1" index="1" allow="bicycle" speed="4.55" length="4.19" width="2.00" shape="3234.36,1920.61 3238.08,1918.68"/>
    </edge>
    <edge id=":12089480282_0" function="internal">
        <lane id=":12089480282_0_0" index="0" disallow="tram rail_urban rail rail_electric rail_fast ship container cable_car subway aircraft wheelchair scooter drone" speed="27.78" length="0.31" shape="3219.10,1918.04 3219.09,1917.73"/>
        <lane id=":12089480282_0_1" index="1" disallow="tram rail_urban rail rail_electric rail_fast ship container cable_car subway aircraft wheelchair scooter drone" speed="27.78" length="0.31" shape="3222.30,1918.02 3222.29,1917.71"/>
        <lane id=":12089480282_0_2" index="2" disallow="tram rail_urban rail rail_electric rail_fast ship container cable_car subway aircraft wheelchair scooter drone" speed="27.78" length="0.31" shape="3225.50,1918.01 3225.49,1917.69"/>
    </edge>
    <edge id=":12089480282_3" function="internal">
        <lane id=":12089480282_3_0" index="0" allow="bicycle" speed="4.36" length="3.55" width="2.00" shape="3226.10,1918.00 3228.63,1920.49"/>
    </edge>
    <edge id=":12089480282_4" function="internal">
        <lane id=":12089480282_4_0" index="0" allow="bicycle" speed="3.82" length="2.87" width="2.00" shape="3217.84,1920.24 3218.37,1920.00 3218.55,1919.37 3218.53,1918.55 3218.49,1917.73"/>
    </edge>
    <edge id=":12089480282_5" function="internal">
        <lane id=":12089480282_5_0" index="0" allow="bicycle" speed="5.56" length="10.79" width="2.00" shape="3217.84,1920.24 3228.63,1920.49"/>
    </edge>
    <edge id=":12089480283_0" function="internal">
        <lane id=":12089480283_0_0" index="0" allow="bicycle" speed="5.56" length="1.45" width="2.00" shape="3216.96,1919.14 3216.95,1917.69"/>
    </edge>
    <edge id=":12089480283_1" function="internal">
        <lane id=":12089480283_1_0" index="0" allow="bicycle" speed="2.84" length="1.29" width="2.00" shape="3216.96,1919.14 3217.64,1920.24"/>
    </edge>
    <edge id=":12089480283_2" function="internal">
        <lane id=":12089480283_2_0" index="0" allow="bicycle" speed="4.40" length="4.05" width="2.00" shape="3214.44,1920.17 3215.55,1920.03 3216.33,1919.58 3216.80,1918.80 3216.95,1917.69"/>
    </edge>
    <edge id=":12089480283_3" function="internal">
        <lane id=":12089480283_3_0" index="0" allow="bicycle" speed="5.56" length="3.20" width="2.00" shape="3214.44,1920.17 3217.64,1920.24"/>
    </edge>
    <edge id=":12089480284_0" function="internal">
        <lane id=":12089480284_0_0" index="0" allow="bicycle" speed="4.85" length="4.30" width="2.00" shape="3144.61,1914.69 3144.81,1915.86 3145.31,1916.71 3146.13,1917.24 3147.26,1917.45"/>
    </edge>
    <edge id=":12089480284_1" function="internal">
        <lane id=":12089480284_1_0" index="0" disallow="tram rail_urban rail rail_electric rail_fast ship container cable_car subway aircraft wheelchair scooter drone" speed="13.89" length="0.43" shape="3144.01,1914.71 3144.03,1915.14"/>
    </edge>
    <edge id=":12089480284_2" function="internal">
        <lane id=":12089480284_2_0" index="0" allow="bicycle" speed="5.56" length="6.35" width="2.00" shape="3140.92,1917.20 3147.26,1917.45"/>
    </edge>
    <edge id=":12089480284_3" function="internal">
        <lane id=":12089480284_3_0" index="0" allow="bicycle" speed="4.65" length="4.25" width="2.00" shape="3140.92,1917.20 3144.63,1915.13"/>
    </edge>
    <edge id=":12089480285_0" function="internal">
        <lane id=":12089480285_0_0" index="0" disallow="tram rail_urban rail rail_electric rail_fast ship container cable_car subway aircraft wheelchair scooter drone" speed="13.89" length="0.10" shape="3044.74,1911.49 3044.74,1911.47"/>
        <lane id=":12089480285_0_1" index="1" disallow="tram rail_urban rail rail_electric rail_fast ship container cable_car subway aircraft wheelchair scooter drone" speed="13.89" length="0.10" shape="3047.94,1911.41 3047.94,1911.39"/>
    </edge>
    <edge id=":12089480285_2" function="internal">
        <lane id=":12089480285_2_0" index="0" allow="bicycle" speed="4.47" length="3.84" width="2.00" shape="3048.54,1911.39 3051.16,1914.20"/>
    </edge>
    <edge id=":12089480285_3" function="internal">
        <lane id=":12089480285_3_0" index="0" allow="bicycle" speed="4.38" length="4.06" width="2.00" shape="3041.66,1913.98 3042.77,1913.84 3043.55,1913.38 3044.01,1912.60 3044.14,1911.49"/>
    </edge>
    <edge id=":12089480285_4" function="internal">
        <lane id=":12089480285_4_0" index="0" allow="bicycle" speed="5.56" length="9.51" width="2.00" shape="3041.66,1913.98 3051.16,1914.20"/>
    </edge>
    <edge id=":1224435523_0" function="internal">
        <lane id=":1224435523_0_0" index="0" disallow="tram rail_urban rail rail_electric rail_fast ship container cable_car subway aircraft wheelchair scooter drone" speed="6.00" length="7.29" shape="3218.65,1837.61 3218.42,1835.26 3217.76,1833.55 3216.67,1832.51 3215.14,1832.11"/>
    </edge>
    <edge id=":1224435523_1" function="internal">
        <lane id=":1224435523_1_0" index="0" disallow="tram rail_urban rail rail_electric rail_fast ship container cable_car subway aircraft wheelchair scooter drone" speed="27.78" length="14.27" shape="3218.65,1837.61 3218.38,1833.40 3217.82,1830.54 3217.25,1827.69 3216.98,1823.48"/>
        <lane id=":1224435523_1_1" index="1" disallow="tram rail_urban rail rail_electric rail_fast ship container cable_car subway aircraft wheelchair scooter drone" speed="27.78" length="14.27" shape="3221.85,1837.60 3221.58,1833.39 3221.02,1830.53 3220.45,1827.67 3220.18,1823.46"/>
        <lane id=":1224435523_1_2" index="2" disallow="tram rail_urban rail rail_electric rail_fast ship container cable_car subway aircraft wheelchair scooter drone" speed="27.78" length="14.27" shape="3225.05,1837.58 3224.78,1833.37 3224.22,1830.51 3223.65,1827.66 3223.38,1823.44"/>
        <lane id=":1224435523_1_3" index="3" disallow="tram rail_urban rail rail_electric rail_fast ship container cable_car subway aircraft wheelchair scooter drone" speed="27.78" length="14.27" shape="3225.05,1837.58 3225.28,1833.37 3225.82,1830.51 3226.35,1827.64 3226.58,1823.43"/>
    </edge>
    <edge id=":1224435523_5" function="internal">
        <lane id=":1224435523_5_0" index="0" disallow="tram rail_urban rail rail_electric rail_fast ship container cable_car subway aircraft wheelchair scooter drone" speed="13.89" length="16.46" shape="3231.56,1831.07 3228.04,1831.21 3224.56,1831.65 3220.47,1832.06 3215.14,1832.11"/>
        <lane id=":1224435523_5_1" index="1" disallow="tram rail_urban rail rail_electric rail_fast ship container cable_car subway aircraft wheelchair scooter drone" speed="13.89" length="16.46" shape="3231.56,1831.07 3228.06,1830.71 3224.61,1830.05 3220.57,1829.36 3215.26,1828.92"/>
    </edge>
    <edge id=":1224435523_7" function="internal">
        <lane id=":1224435523_7_0" index="0" disallow="tram rail_urban rail rail_electric rail_fast ship container cable_car subway aircraft wheelchair scooter drone" speed="7.68" length="12.64" shape="3231.56,1831.07 3227.99,1830.50 3225.45,1829.03 3223.91,1826.68 3223.38,1823.44"/>
        <lane id=":1224435523_7_1" index="1" disallow="tram rail_urban rail rail_electric rail_fast ship container cable_car subway aircraft wheelchair scooter drone" speed="6.96" length="10.20" shape="3231.56,1831.07 3229.40,1830.53 3227.85,1829.08 3226.91,1826.71 3226.58,1823.43"/>
    </edge>
    <edge id=":1224435528_0" function="internal">
        <lane id=":1224435528_0_0" index="0" disallow="tram rail_urban rail rail_electric rail_fast ship container cable_car subway aircraft wheelchair scooter drone" speed="13.89" length="0.30" shape="3367.55,1836.80 3367.25,1836.78"/>
    </edge>
    <edge id=":1224744760_0" function="internal">
        <lane id=":1224744760_0_0" index="0" disallow="tram rail_urban rail rail_electric rail_fast ship container cable_car subway aircraft wheelchair scooter drone" speed="5.69" length="6.63" shape="3242.41,1754.46 3242.50,1756.92 3242.89,1758.69 3243.59,1759.77 3244.60,1760.14"/>
    </edge>
    <edge id=":1224744760_1" function="internal">
        <lane id=":1224744760_1_0" index="0" disallow="tram rail_urban rail rail_electric rail_fast ship container cable_car subway aircraft wheelchair scooter drone" speed="27.78" length="11.39" shape="3242.41,1754.46 3242.37,1765.73"/>
        <lane id=":1224744760_1_1" index="1" disallow="tram rail_urban rail rail_electric rail_fast ship container cable_car subway aircraft wheelchair scooter drone" speed="27.78" length="11.39" shape="3239.21,1754.39 3239.17,1765.78"/>
        <lane id=":1224744760_1_2" index="2" disallow="tram rail_urban rail rail_electric rail_fast ship container cable_car subway aircraft wheelchair scooter drone" speed="27.78" length="11.39" shape="3236.01,1754.32 3235.97,1765.83"/>
    </edge>
    <edge id=":1224744760_4" function="internal">
        <lane id=":1224744760_4_0" index="0" disallow="tram rail_urban rail rail_electric rail_fast ship container cable_car subway aircraft wheelchair scooter drone" speed="13.89" length="13.39" shape="3231.22,1759.78 3244.60,1760.14"/>
    </edge>
    <edge id=":1224744760_5" function="internal">
        <lane id=":1224744760_5_0" index="0" disallow="tram rail_urban rail rail_electric rail_fast ship container cable_car subway aircraft wheelchair scooter drone" speed="7.28" length="11.19" shape="3231.22,1759.78 3234.66,1760.23 3237.14,1761.38 3238.64,1763.23 3239.17,1765.78"/>
        <lane id=":1224744760_5_1" index="1" disallow="tram rail_urban rail rail_electric rail_fast ship container cable_car subway aircraft wheelchair scooter drone" speed="6.48" length="8.66" shape="3231.22,1759.78 3233.26,1760.20 3234.74,1761.35 3235.64,1763.23 3235.97,1765.83"/>
    </edge>
    <edge id=":1224744820_0" function="internal">
        <lane id=":1224744820_0_0" index="0" disallow="tram rail_urban rail rail_electric rail_fast ship container cable_car subway aircraft wheelchair scooter drone" speed="27.78" length="14.40" shape="3216.71,1766.53 3216.65,1752.13"/>
        <lane id=":1224744820_0_1" index="1" disallow="tram rail_urban rail rail_electric rail_fast ship container cable_car subway aircraft wheelchair scooter drone" speed="27.78" length="14.40" shape="3219.91,1766.52 3219.85,1752.11"/>
        <lane id=":1224744820_0_2" index="2" disallow="tram rail_urban rail rail_electric rail_fast ship container cable_car subway aircraft wheelchair scooter drone" speed="27.78" length="14.40" shape="3223.11,1766.50 3223.05,1752.10"/>
        <lane id=":1224744820_0_3" index="3" disallow="tram rail_urban rail rail_electric rail_fast ship container cable_car subway aircraft wheelchair scooter drone" speed="27.78" length="14.40" shape="3226.31,1766.49 3226.25,1752.08"/>
    </edge>
    <edge id=":1224744820_4" function="internal">
        <lane id=":1224744820_4_0" index="0" disallow="tram rail_urban rail rail_electric rail_fast ship container cable_car subway aircraft wheelchair scooter drone" speed="5.51" length="6.33" shape="3214.81,1757.73 3215.63,1757.40 3216.20,1756.35 3216.54,1754.60 3216.65,1752.13"/>
        <lane id=":1224744820_4_1" index="1" disallow="tram rail_urban rail rail_electric rail_fast ship container cable_car subway aircraft wheelchair scooter drone" speed="6.31" length="8.65" shape="3214.81,1757.73 3217.03,1757.43 3218.60,1756.39 3219.54,1754.62 3219.85,1752.11"/>
    </edge>
    <edge id=":1224744820_6" function="internal">
        <lane id=":1224744820_6_0" index="0" disallow="tram rail_urban rail rail_electric rail_fast ship container cable_car subway aircraft wheelchair scooter drone" speed="13.89" length="16.35" shape="3214.73,1760.93 3220.01,1760.82 3224.06,1760.38 3227.51,1759.93 3231.02,1759.77"/>
    </edge>
    <edge id=":130153815_0" function="internal">
        <lane id=":130153815_0_0" index="0" disallow="tram rail_urban rail rail_electric rail_fast ship container cable_car subway aircraft wheelchair scooter drone" speed="4.60" length="3.86" shape="3243.88,1918.86 3244.09,1919.33 3244.74,1919.69 3245.81,1919.93 3247.30,1920.06"/>
        <lane id=":130153815_0_1" index="1" disallow="tram rail_urban rail rail_electric rail_fast ship container cable_car subway aircraft wheelchair scooter drone" speed="5.59" length="6.19" shape="3243.88,1918.86 3244.09,1920.73 3244.71,1922.09 3245.74,1922.93 3247.18,1923.26"/>
    </edge>
    <edge id=":130153815_2" function="internal">
        <lane id=":130153815_2_0" index="0" disallow="tram rail_urban rail rail_electric rail_fast ship container cable_car subway aircraft wheelchair scooter drone" speed="27.78" length="16.83" shape="3243.88,1918.86 3243.96,1923.74 3244.19,1927.07 3244.60,1930.39 3245.23,1935.23"/>
        <lane id=":130153815_2_1" index="1" disallow="tram rail_urban rail rail_electric rail_fast ship container cable_car subway aircraft wheelchair scooter drone" speed="27.78" length="16.83" shape="3240.68,1918.87 3240.76,1923.86 3240.99,1927.27 3241.41,1930.67 3242.05,1935.62"/>
        <lane id=":130153815_2_2" index="2" disallow="tram rail_urban rail rail_electric rail_fast ship container cable_car subway aircraft wheelchair scooter drone" speed="27.78" length="16.83" shape="3237.48,1918.88 3237.56,1923.98 3237.79,1927.47 3238.22,1930.95 3238.88,1936.01"/>
    </edge>
    <edge id=":130153815_5" function="internal">
        <lane id=":130153815_5_0" index="0" disallow="tram rail_urban rail rail_electric rail_fast ship container cable_car subway aircraft wheelchair scooter drone" speed="27.78" length="15.34" shape="3231.98,1919.46 3247.30,1920.06"/>
        <lane id=":130153815_5_1" index="1" disallow="tram rail_urban rail rail_electric rail_fast ship container cable_car subway aircraft wheelchair scooter drone" speed="27.78" length="15.34" shape="3231.85,1922.66 3247.18,1923.26"/>
        <lane id=":130153815_5_2" index="2" disallow="tram rail_urban rail rail_electric rail_fast ship container cable_car subway aircraft wheelchair scooter drone" speed="27.78" length="15.34" shape="3231.73,1925.86 3247.06,1926.45"/>
        <lane id=":130153815_5_3" index="3" disallow="tram rail_urban rail rail_electric rail_fast ship container cable_car subway aircraft wheelchair scooter drone" speed="27.78" length="15.34" shape="3231.60,1929.05 3246.93,1929.65"/>
    </edge>
    <edge id=":130153815_9" function="internal">
        <lane id=":130153815_9_0" index="0" disallow="tram rail_urban rail rail_electric rail_fast ship container cable_car subway aircraft wheelchair scooter drone" speed="8.31" length="13.50" shape="3231.60,1929.05 3235.89,1929.61 3239.06,1930.89 3241.11,1932.89 3242.05,1935.62"/>
        <lane id=":130153815_9_1" index="1" disallow="tram rail_urban rail rail_electric rail_fast ship container cable_car subway aircraft wheelchair scooter drone" speed="7.59" length="11.11" shape="3231.60,1929.05 3234.48,1929.58 3236.65,1930.92 3238.11,1933.06 3238.88,1936.01"/>
    </edge>
    <edge id=":130154244_0" function="internal">
        <lane id=":130154244_0_0" index="0" disallow="tram rail_urban rail rail_electric rail_fast ship container cable_car subway aircraft wheelchair scooter drone" speed="27.78" length="11.04" shape="3015.24,1668.96 3004.21,1668.57"/>
        <lane id=":130154244_0_1" index="1" disallow="tram rail_urban rail rail_electric rail_fast ship container cable_car subway aircraft wheelchair scooter drone" speed="27.78" length="11.04" shape="3015.36,1665.76 3004.32,1665.37"/>
        <lane id=":130154244_0_2" index="2" disallow="tram rail_urban rail rail_electric rail_fast ship container cable_car subway aircraft wheelchair scooter drone" speed="27.78" length="11.04" shape="3015.47,1662.57 3004.44,1662.17"/>
        <lane id=":130154244_0_3" index="3" disallow="tram rail_urban rail rail_electric rail_fast ship container cable_car subway aircraft wheelchair scooter drone" speed="27.78" length="11.04" shape="3015.59,1659.37 3004.55,1658.97"/>
    </edge>
    <edge id=":130154244_4" function="internal">
        <lane id=":130154244_4_0" index="0" disallow="tram rail_urban rail rail_electric rail_fast ship container cable_car subway aircraft wheelchair scooter drone" speed="6.53" length="8.95" shape="3015.59,1659.37 3013.19,1658.93 3011.50,1657.83 3010.49,1656.06 3010.19,1653.62"/>
    </edge>
    <edge id=":1369529293_0" function="internal">
        <lane id=":1369529293_0_0" index="0" disallow="tram rail_urban rail rail_electric rail_fast ship container cable_car subway aircraft wheelchair scooter drone" speed="13.89" length="0.10" shape="3576.06,1850.89 3576.06,1850.89"/>
    </edge>
    <edge id=":1369529307_0" function="internal">
        <lane id=":1369529307_0_0" index="0" disallow="tram rail_urban rail rail_electric rail_fast ship container cable_car subway aircraft wheelchair scooter drone" speed="5.69" length="6.31" shape="3144.03,1915.34 3144.86,1915.90 3146.73,1916.15 3148.78,1916.22 3150.15,1916.23"/>
        <lane id=":1369529307_0_1" index="1" disallow="tram rail_urban rail rail_electric rail_fast ship container cable_car subway aircraft wheelchair scooter drone" speed="6.34" length="8.07" shape="3144.03,1915.34 3144.45,1917.05 3145.59,1918.29 3147.45,1919.09 3150.03,1919.43"/>
    </edge>
    <edge id=":1369529307_2" function="internal">
        <lane id=":1369529307_2_0" index="0" disallow="tram rail_urban rail rail_electric rail_fast ship container cable_car subway aircraft wheelchair scooter drone" speed="13.89" length="15.72" shape="3144.03,1915.34 3144.49,1931.06"/>
    </edge>
    <edge id=":1369529307_3" function="internal">
        <lane id=":1369529307_3_0" index="0" disallow="tram rail_urban rail rail_electric rail_fast ship container cable_car subway aircraft wheelchair scooter drone" speed="27.78" length="11.56" shape="3138.61,1915.78 3150.15,1916.23"/>
        <lane id=":1369529307_3_1" index="1" disallow="tram rail_urban rail rail_electric rail_fast ship container cable_car subway aircraft wheelchair scooter drone" speed="27.78" length="11.56" shape="3138.48,1918.98 3150.03,1919.43"/>
        <lane id=":1369529307_3_2" index="2" disallow="tram rail_urban rail rail_electric rail_fast ship container cable_car subway aircraft wheelchair scooter drone" speed="27.78" length="11.56" shape="3138.35,1922.18 3149.90,1922.63"/>
        <lane id=":1369529307_3_3" index="3" disallow="tram rail_urban rail rail_electric rail_fast ship container cable_car subway aircraft wheelchair scooter drone" speed="27.78" length="11.56" shape="3138.23,1925.37 3149.77,1925.83"/>
    </edge>
    <edge id=":1369529307_7" function="internal">
        <lane id=":1369529307_7_0" index="0" disallow="tram rail_urban rail rail_electric rail_fast ship container cable_car subway aircraft wheelchair scooter drone" speed="6.82" length="9.50" shape="3138.23,1925.37 3140.91,1925.82 3142.84,1926.91 3144.04,1928.66 3144.49,1931.06"/>
    </edge>
    <edge id=":1369529324_0" function="internal">
        <lane id=":1369529324_0_0" index="0" disallow="tram rail_urban rail rail_electric rail_fast ship container cable_car subway aircraft wheelchair scooter drone" speed="6.37" length="9.04" shape="3147.15,1829.57 3144.66,1829.83 3142.91,1830.84 3141.89,1832.58 3141.61,1835.07"/>
    </edge>
    <edge id=":1369529324_1" function="internal">
        <lane id=":1369529324_1_0" index="0" disallow="tram rail_urban rail rail_electric rail_fast ship container cable_car subway aircraft wheelchair scooter drone" speed="13.89" length="11.65" shape="3147.15,1829.57 3135.51,1829.12"/>
        <lane id=":1369529324_1_1" index="1" disallow="tram rail_urban rail rail_electric rail_fast ship container cable_car subway aircraft wheelchair scooter drone" speed="13.89" length="11.65" shape="3147.27,1826.37 3135.63,1825.92"/>
    </edge>
    <edge id=":1369529324_3" function="internal">
        <lane id=":1369529324_3_0" index="0" disallow="tram rail_urban rail rail_electric rail_fast ship container cable_car subway aircraft wheelchair scooter drone" speed="13.89" length="14.63" shape="3141.17,1820.44 3141.61,1835.07"/>
    </edge>
    <edge id=":1369529324_4" function="internal">
        <lane id=":1369529324_4_0" index="0" disallow="tram rail_urban rail rail_electric rail_fast ship container cable_car subway aircraft wheelchair scooter drone" speed="6.36" length="9.04" shape="3141.17,1820.44 3140.89,1822.92 3139.87,1824.67 3138.12,1825.67 3135.63,1825.92"/>
    </edge>
    <edge id=":1369529331_0" function="internal">