<?xml version="1.0" encoding="UTF-8"?>

<!-- generated on 2025-03-10 09:05:48 by Eclipse SUMO netedit Version 1.21.0
<neteditConfiguration xmlns:xsi="http://www.w3.org/2001/XMLSchema-instance" xsi:noNamespaceSchemaLocation="http://sumo.dlr.de/xsd/neteditConfiguration.xsd">

    <input>
        <sumo-net-file value="C:\Users\Xih12\Documents\Semestre8\iot\Mapas\red_hidalgo-federalismo.net.xml"/>
    </input>

    <output>
        <output-file value="C:\Users\Xih12\Documents\Semestre8\iot\Mapas\red_hidalgo-federalismo.net.xml"/>
    </output>

    <processing>
        <geometry.min-radius.fix.railways value="false"/>
        <geometry.max-grade.fix value="false"/>
        <offset.disable-normalization value="true"/>
        <lefthand value="0"/>
    </processing>

    <junctions>
        <no-turnarounds value="true"/>
        <junctions.corner-detail value="5"/>
        <junctions.limit-turn-speed value="5.50"/>
        <rectangular-lane-cut value="0"/>
    </junctions>

    <pedestrian>
        <walkingareas value="0"/>
    </pedestrian>

</neteditConfiguration>
-->

<net version="1.20" junctionCornerDetail="5" limitTurnSpeed="5.50" xmlns:xsi="http://www.w3.org/2001/XMLSchema-instance" xsi:noNamespaceSchemaLocation="http://sumo.dlr.de/xsd/net_file.xsd">

    <location netOffset="-668143.68,-2285366.26" convBoundary="2440.58,1573.89,3367.40,2081.55" origBoundary="-103.385739,20.659836,-103.276560,20.711113" projParameter="+proj=utm +zone=13 +ellps=WGS84 +datum=WGS84 +units=m +no_defs"/>

    <type id="highway.cycleway" priority="1" numLanes="1" speed="5.56" allow="bicycle" oneway="0" width="2.00"/>
    <type id="highway.footway" priority="1" numLanes="1" speed="2.78" allow="pedestrian" oneway="1" width="2.00"/>
    <type id="highway.living_street" priority="2" numLanes="1" speed="2.78" disallow="tram rail_urban rail rail_electric rail_fast ship container cable_car subway aircraft wheelchair scooter drone" oneway="0"/>
    <type id="highway.primary" priority="12" numLanes="2" speed="27.78" disallow="tram rail_urban rail rail_electric rail_fast ship container cable_car subway aircraft wheelchair scooter drone" oneway="0"/>
    <type id="highway.residential" priority="3" numLanes="1" speed="13.89" disallow="tram rail_urban rail rail_electric rail_fast ship container cable_car subway aircraft wheelchair scooter drone" oneway="0"/>
    <type id="highway.secondary" priority="11" numLanes="1" speed="27.78" disallow="tram rail_urban rail rail_electric rail_fast ship container cable_car subway aircraft wheelchair scooter drone" oneway="0"/>
    <type id="railway.subway" priority="18" numLanes="1" speed="27.78" allow="subway" oneway="1"/>

    <edge id=":10628325114_0" function="internal">
        <lane id=":10628325114_0_0" index="0" allow="bicycle" speed="4.40" length="4.05" width="2.00" shape="2833.44,1908.72 2834.54,1908.57 2835.32,1908.11 2835.78,1907.32 2835.92,1906.22"/>
    </edge>
    <edge id=":10628325114_1" function="internal">
        <lane id=":10628325114_1_0" index="0" allow="bicycle" speed="5.56" length="6.20" width="2.00" shape="2833.44,1908.72 2839.64,1908.79"/>
    </edge>
    <edge id=":10628325114_2" function="internal">
        <lane id=":10628325114_2_0" index="0" disallow="tram rail_urban rail rail_electric rail_fast ship container cable_car subway aircraft wheelchair scooter drone" speed="13.89" length="0.18" shape="2836.69,1906.14 2836.52,1906.21"/>
    </edge>
    <edge id=":10628325114_3" function="internal">
        <lane id=":10628325114_3_0" index="0" allow="bicycle" speed="4.43" length="3.53" width="2.00" shape="2837.29,1906.17 2839.64,1908.79"/>
    </edge>
    <edge id=":10628325115_0" function="internal">
        <lane id=":10628325115_0_0" index="0" allow="bicycle" speed="4.77" length="4.20" width="2.00" shape="2949.46,1909.19 2949.66,1910.34 2950.15,1911.17 2950.95,1911.68 2952.05,1911.87"/>
    </edge>
    <edge id=":10628325115_1" function="internal">
        <lane id=":10628325115_1_0" index="0" disallow="tram rail_urban rail rail_electric rail_fast ship container cable_car subway aircraft wheelchair scooter drone" speed="13.89" length="0.24" shape="2948.87,1909.21 2948.96,1908.99"/>
    </edge>
    <edge id=":10628325115_2" function="internal">
        <lane id=":10628325115_2_0" index="0" allow="bicycle" speed="5.56" length="6.28" width="2.00" shape="2945.78,1911.71 2952.05,1911.87"/>
    </edge>
    <edge id=":10628325115_3" function="internal">
        <lane id=":10628325115_3_0" index="0" allow="bicycle" speed="4.76" length="4.65" width="2.00" shape="2945.78,1911.71 2949.56,1909.00"/>
    </edge>
    <edge id=":10628342545_0" function="internal">
        <lane id=":10628342545_0_0" index="0" disallow="tram rail_urban rail rail_electric rail_fast ship container cable_car subway aircraft wheelchair scooter drone" speed="27.78" length="0.19" shape="2741.49,1905.19 2741.45,1905.40"/>
        <lane id=":10628342545_0_1" index="1" disallow="tram rail_urban rail rail_electric rail_fast ship container cable_car subway aircraft wheelchair scooter drone" speed="27.78" length="0.19" shape="2744.69,1905.17 2744.65,1905.33"/>
    </edge>
    <edge id=":10628342545_2" function="internal">
        <lane id=":10628342545_2_0" index="0" allow="bicycle" speed="6.54" length="5.40" width="2.00" shape="2745.29,1905.16 2750.49,1906.62"/>
    </edge>
    <edge id=":10628342545_6" function="internal">
        <lane id=":10628342545_6_0" index="0" allow="bicycle" speed="6.54" length="3.87" width="2.00" shape="2750.49,1906.62 2754.22,1907.66"/>
    </edge>
    <edge id=":10628342545_3" function="internal">
        <lane id=":10628342545_3_0" index="0" allow="bicycle" speed="4.68" length="4.06" width="2.00" shape="2751.64,1905.16 2751.83,1906.24 2752.32,1907.02 2753.12,1907.49 2754.22,1907.66"/>
    </edge>
    <edge id=":10628342545_4" function="internal">
        <lane id=":10628342545_4_0" index="0" disallow="tram rail_urban rail rail_electric rail_fast ship container cable_car subway aircraft wheelchair scooter drone" speed="27.78" length="0.10" shape="2751.04,1905.17 2751.09,1905.13"/>
        <lane id=":10628342545_4_1" index="1" disallow="tram rail_urban rail rail_electric rail_fast ship container cable_car subway aircraft wheelchair scooter drone" speed="27.78" length="0.10" shape="2747.85,1905.25 2747.89,1905.15"/>
    </edge>
    <edge id=":12089480280_0" function="internal">
        <lane id=":12089480280_0_0" index="0" allow="bicycle" speed="3.14" length="1.64" width="2.00" shape="3246.53,1920.88 3246.78,1919.26"/>
    </edge>
    <edge id=":12089480281_0" function="internal">
        <lane id=":12089480281_0_0" index="0" allow="bicycle" speed="4.52" length="3.74" width="2.00" shape="3244.47,1918.12 3244.59,1919.31 3244.94,1920.17 3245.52,1920.69 3246.33,1920.88"/>
    </edge>
    <edge id=":12089480281_1" function="internal">
        <lane id=":12089480281_1_0" index="0" disallow="tram rail_urban rail rail_electric rail_fast ship container cable_car subway aircraft wheelchair scooter drone" speed="27.78" length="0.55" shape="3243.87,1918.12 3243.87,1918.66"/>
        <lane id=":12089480281_1_1" index="1" disallow="tram rail_urban rail rail_electric rail_fast ship container cable_car subway aircraft wheelchair scooter drone" speed="27.78" length="0.55" shape="3240.67,1918.13 3240.67,1918.67"/>
        <lane id=":12089480281_1_2" index="2" disallow="tram rail_urban rail rail_electric rail_fast ship container cable_car subway aircraft wheelchair scooter drone" speed="27.78" length="0.55" shape="3237.47,1918.14 3237.47,1918.69"/>
    </edge>
    <edge id=":12089480281_4" function="internal">
        <lane id=":12089480281_4_0" index="0" allow="bicycle" speed="5.56" length="11.98" width="2.00" shape="3234.35,1920.61 3246.33,1920.88"/>
    </edge>
    <edge id=":12089480281_5" function="internal">
        <lane id=":12089480281_5_0" index="0" allow="bicycle" speed="5.79" length="7.18" width="2.00" shape="3234.35,1920.61 3241.27,1918.67"/>
        <lane id=":12089480281_5_1" index="1" allow="bicycle" speed="4.55" length="4.18" width="2.00" shape="3234.35,1920.61 3238.07,1918.69"/>
    </edge>
    <edge id=":12089480282_0" function="internal">
        <lane id=":12089480282_0_0" index="0" disallow="tram rail_urban rail rail_electric rail_fast ship container cable_car subway aircraft wheelchair scooter drone" speed="27.78" length="0.32" shape="3219.10,1918.03 3219.09,1917.72"/>
        <lane id=":12089480282_0_1" index="1" disallow="tram rail_urban rail rail_electric rail_fast ship container cable_car subway aircraft wheelchair scooter drone" speed="27.78" length="0.32" shape="3222.30,1918.02 3222.29,1917.70"/>
        <lane id=":12089480282_0_2" index="2" disallow="tram rail_urban rail rail_electric rail_fast ship container cable_car subway aircraft wheelchair scooter drone" speed="27.78" length="0.32" shape="3225.50,1918.01 3225.49,1917.69"/>
    </edge>
    <edge id=":12089480282_3" function="internal">
        <lane id=":12089480282_3_0" index="0" allow="bicycle" speed="4.36" length="3.54" width="2.00" shape="3226.10,1918.01 3228.64,1920.48"/>
    </edge>
    <edge id=":12089480282_4" function="internal">
        <lane id=":12089480282_4_0" index="0" allow="bicycle" speed="3.82" length="2.87" width="2.00" shape="3217.84,1920.24 3218.37,1920.00 3218.55,1919.37 3218.54,1918.54 3218.49,1917.73"/>
    </edge>
    <edge id=":12089480282_5" function="internal">
        <lane id=":12089480282_5_0" index="0" allow="bicycle" speed="5.56" length="10.80" width="2.00" shape="3217.84,1920.24 3228.64,1920.48"/>
    </edge>
    <edge id=":12089480283_0" function="internal">
        <lane id=":12089480283_0_0" index="0" allow="bicycle" speed="2.84" length="1.29" width="2.00" shape="3216.96,1919.14 3217.64,1920.24"/>
    </edge>
    <edge id=":12089480283_1" function="internal">
        <lane id=":12089480283_1_0" index="0" allow="bicycle" speed="5.56" length="3.14" width="2.00" shape="3214.50,1920.16 3217.64,1920.24"/>
    </edge>
    <edge id=":12089480284_0" function="internal">
        <lane id=":12089480284_0_0" index="0" allow="bicycle" speed="4.85" length="4.30" width="2.00" shape="3144.61,1914.70 3144.81,1915.87 3145.31,1916.72 3146.13,1917.25 3147.26,1917.46"/>
    </edge>
    <edge id=":12089480284_1" function="internal">
        <lane id=":12089480284_1_0" index="0" disallow="tram rail_urban rail rail_electric rail_fast ship container cable_car subway aircraft wheelchair scooter drone" speed="13.89" length="0.43" shape="3144.01,1914.72 3144.03,1915.14"/>
    </edge>
    <edge id=":12089480284_2" function="internal">
        <lane id=":12089480284_2_0" index="0" allow="bicycle" speed="5.56" length="6.35" width="2.00" shape="3140.92,1917.20 3147.26,1917.46"/>
    </edge>
    <edge id=":12089480284_3" function="internal">
        <lane id=":12089480284_3_0" index="0" allow="bicycle" speed="4.65" length="4.25" width="2.00" shape="3140.92,1917.20 3144.63,1915.13"/>
    </edge>
    <edge id=":12089480285_0" function="internal">
        <lane id=":12089480285_0_0" index="0" disallow="tram rail_urban rail rail_electric rail_fast ship container cable_car subway aircraft wheelchair scooter drone" speed="13.89" length="0.10" shape="3044.75,1911.49 3044.74,1911.47"/>
        <lane id=":12089480285_0_1" index="1" disallow="tram rail_urban rail rail_electric rail_fast ship container cable_car subway aircraft wheelchair scooter drone" speed="13.89" length="0.10" shape="3047.95,1911.41 3047.94,1911.39"/>
    </edge>
    <edge id=":12089480285_2" function="internal">
        <lane id=":12089480285_2_0" index="0" allow="bicycle" speed="4.47" length="3.83" width="2.00" shape="3048.55,1911.40 3051.16,1914.20"/>
    </edge>
    <edge id=":12089480285_3" function="internal">
        <lane id=":12089480285_3_0" index="0" allow="bicycle" speed="4.38" length="4.06" width="2.00" shape="3041.66,1913.98 3042.77,1913.85 3043.55,1913.39 3044.01,1912.60 3044.14,1911.49"/>
    </edge>
    <edge id=":12089480285_4" function="internal">
        <lane id=":12089480285_4_0" index="0" allow="bicycle" speed="5.56" length="9.51" width="2.00" shape="3041.66,1913.98 3051.16,1914.20"/>
    </edge>
    <edge id=":1224435523_0" function="internal">
        <lane id=":1224435523_0_0" index="0" disallow="tram rail_urban rail rail_electric rail_fast ship container cable_car subway aircraft wheelchair scooter drone" speed="6.34" length="8.26" shape="3218.65,1837.62 3218.34,1835.26 3217.45,1833.54 3215.96,1832.48 3213.89,1832.07"/>
    </edge>
    <edge id=":1224435523_1" function="internal">
        <lane id=":1224435523_1_0" index="0" disallow="tram rail_urban rail rail_electric rail_fast ship container cable_car subway aircraft wheelchair scooter drone" speed="27.78" length="14.27" shape="3218.65,1837.62 3218.38,1833.41 3217.82,1830.55 3217.25,1827.69 3216.98,1823.48"/>
        <lane id=":1224435523_1_1" index="1" disallow="tram rail_urban rail rail_electric rail_fast ship container cable_car subway aircraft wheelchair scooter drone" speed="27.78" length="14.27" shape="3221.85,1837.60 3221.58,1833.39 3221.02,1830.53 3220.45,1827.67 3220.18,1823.46"/>
        <lane id=":1224435523_1_2" index="2" disallow="tram rail_urban rail rail_electric rail_fast ship container cable_car subway aircraft wheelchair scooter drone" speed="27.78" length="14.27" shape="3225.05,1837.59 3224.78,1833.38 3224.22,1830.52 3223.65,1827.66 3223.38,1823.44"/>
        <lane id=":1224435523_1_3" index="3" disallow="tram rail_urban rail rail_electric rail_fast ship container cable_car subway aircraft wheelchair scooter drone" speed="27.78" length="14.27" shape="3225.05,1837.59 3225.28,1833.37 3225.82,1830.51 3226.35,1827.64 3226.58,1823.43"/>
    </edge>
    <edge id=":1224435523_5" function="internal">
        <lane id=":1224435523_5_0" index="0" disallow="tram rail_urban rail rail_electric rail_fast ship container cable_car subway aircraft wheelchair scooter drone" speed="13.89" length="17.71" shape="3231.56,1831.07 3227.93,1831.21 3224.16,1831.63 3219.67,1832.03 3213.89,1832.07"/>
        <lane id=":1224435523_5_1" index="1" disallow="tram rail_urban rail rail_electric rail_fast ship container cable_car subway aircraft wheelchair scooter drone" speed="13.89" length="17.71" shape="3231.56,1831.07 3227.95,1830.71 3224.22,1830.03 3219.77,1829.33 3214.00,1828.87"/>
    </edge>
    <edge id=":1224435523_7" function="internal">
        <lane id=":1224435523_7_0" index="0" disallow="tram rail_urban rail rail_electric rail_fast ship container cable_car subway aircraft wheelchair scooter drone" speed="7.68" length="12.64" shape="3231.56,1831.07 3227.99,1830.50 3225.44,1829.03 3223.91,1826.68 3223.38,1823.44"/>
        <lane id=":1224435523_7_1" index="1" disallow="tram rail_urban rail rail_electric rail_fast ship container cable_car subway aircraft wheelchair scooter drone" speed="6.96" length="10.20" shape="3231.56,1831.07 3229.39,1830.54 3227.85,1829.08 3226.91,1826.71 3226.58,1823.43"/>
    </edge>
    <edge id=":1224744760_0" function="internal">
        <lane id=":1224744760_0_0" index="0" disallow="tram rail_urban rail rail_electric rail_fast ship container cable_car subway aircraft wheelchair scooter drone" speed="5.99" length="7.46" shape="3242.40,1754.46 3242.57,1756.93 3243.19,1758.70 3244.26,1759.79 3245.79,1760.18"/>
    </edge>
    <edge id=":1224744760_1" function="internal">
        <lane id=":1224744760_1_0" index="0" disallow="tram rail_urban rail rail_electric rail_fast ship container cable_car subway aircraft wheelchair scooter drone" speed="27.78" length="11.38" shape="3242.40,1754.46 3242.37,1765.73"/>
        <lane id=":1224744760_1_1" index="1" disallow="tram rail_urban rail rail_electric rail_fast ship container cable_car subway aircraft wheelchair scooter drone" speed="27.78" length="11.38" shape="3239.20,1754.39 3239.17,1765.78"/>
        <lane id=":1224744760_1_2" index="2" disallow="tram rail_urban rail rail_electric rail_fast ship container cable_car subway aircraft wheelchair scooter drone" speed="27.78" length="11.38" shape="3236.00,1754.32 3235.97,1765.83"/>
    </edge>
    <edge id=":1224744760_4" function="internal">
        <lane id=":1224744760_4_0" index="0" disallow="tram rail_urban rail rail_electric rail_fast ship container cable_car subway aircraft wheelchair scooter drone" speed="13.89" length="14.58" shape="3231.22,1759.78 3245.79,1760.18"/>
    </edge>
    <edge id=":1224744760_5" function="internal">
        <lane id=":1224744760_5_0" index="0" disallow="tram rail_urban rail rail_electric rail_fast ship container cable_car subway aircraft wheelchair scooter drone" speed="7.28" length="11.19" shape="3231.22,1759.78 3234.66,1760.23 3237.14,1761.38 3238.64,1763.23 3239.17,1765.78"/>
        <lane id=":1224744760_5_1" index="1" disallow="tram rail_urban rail rail_electric rail_fast ship container cable_car subway aircraft wheelchair scooter drone" speed="6.48" length="8.66" shape="3231.22,1759.78 3233.26,1760.20 3234.74,1761.35 3235.64,1763.23 3235.97,1765.83"/>
    </edge>
    <edge id=":1224744820_0" function="internal">
        <lane id=":1224744820_0_0" index="0" disallow="tram rail_urban rail rail_electric rail_fast ship container cable_car subway aircraft wheelchair scooter drone" speed="27.78" length="14.40" shape="3216.71,1766.53 3216.65,1752.12"/>
        <lane id=":1224744820_0_1" index="1" disallow="tram rail_urban rail rail_electric rail_fast ship container cable_car subway aircraft wheelchair scooter drone" speed="27.78" length="14.40" shape="3219.91,1766.51 3219.85,1752.11"/>
        <lane id=":1224744820_0_2" index="2" disallow="tram rail_urban rail rail_electric rail_fast ship container cable_car subway aircraft wheelchair scooter drone" speed="27.78" length="14.40" shape="3223.11,1766.50 3223.05,1752.09"/>
        <lane id=":1224744820_0_3" index="3" disallow="tram rail_urban rail rail_electric rail_fast ship container cable_car subway aircraft wheelchair scooter drone" speed="27.78" length="14.40" shape="3226.31,1766.48 3226.25,1752.08"/>
    </edge>
    <edge id=":1224744820_4" function="internal">
        <lane id=":1224744820_4_0" index="0" disallow="tram rail_urban rail rail_electric rail_fast ship container cable_car subway aircraft wheelchair scooter drone" speed="5.53" length="6.39" shape="3214.70,1757.72 3215.56,1757.39 3216.17,1756.35 3216.53,1754.59 3216.65,1752.12"/>
        <lane id=":1224744820_4_1" index="1" disallow="tram rail_urban rail rail_electric rail_fast ship container cable_car subway aircraft wheelchair scooter drone" speed="6.34" length="8.74" shape="3214.70,1757.72 3216.96,1757.42 3218.57,1756.39 3219.53,1754.62 3219.85,1752.11"/>
    </edge>
    <edge id=":1224744820_6" function="internal">
        <lane id=":1224744820_6_0" index="0" disallow="tram rail_urban rail rail_electric rail_fast ship container cable_car subway aircraft wheelchair scooter drone" speed="13.89" length="16.46" shape="3214.61,1760.92 3219.94,1760.82 3224.02,1760.38 3227.50,1759.92 3231.02,1759.77"/>
    </edge>
    <edge id=":130153815_0" function="internal">
        <lane id=":130153815_0_0" index="0" disallow="tram rail_urban rail rail_electric rail_fast ship container cable_car subway aircraft wheelchair scooter drone" speed="4.61" length="3.87" shape="3243.87,1918.86 3244.09,1919.33 3244.73,1919.69 3245.80,1919.94 3247.30,1920.06"/>
        <lane id=":130153815_0_1" index="1" disallow="tram rail_urban rail rail_electric rail_fast ship container cable_car subway aircraft wheelchair scooter drone" speed="5.60" length="6.19" shape="3243.87,1918.86 3244.09,1920.74 3244.71,1922.10 3245.74,1922.94 3247.18,1923.26"/>
    </edge>
    <edge id=":130153815_2" function="internal">
        <lane id=":130153815_2_0" index="0" disallow="tram rail_urban rail rail_electric rail_fast ship container cable_car subway aircraft wheelchair scooter drone" speed="27.78" length="16.82" shape="3243.87,1918.86 3243.96,1923.73 3244.19,1927.07 3244.60,1930.39 3245.23,1935.23"/>
        <lane id=":130153815_2_1" index="1" disallow="tram rail_urban rail rail_electric rail_fast ship container cable_car subway aircraft wheelchair scooter drone" speed="27.78" length="16.82" shape="3240.67,1918.87 3240.76,1923.86 3240.99,1927.27 3241.41,1930.67 3242.05,1935.62"/>
        <lane id=":130153815_2_2" index="2" disallow="tram rail_urban rail rail_electric rail_fast ship container cable_car subway aircraft wheelchair scooter drone" speed="27.78" length="16.82" shape="3237.47,1918.89 3237.56,1923.99 3237.80,1927.47 3238.22,1930.95 3238.88,1936.01"/>
    </edge>
    <edge id=":130153815_5" function="internal">
        <lane id=":130153815_5_0" index="0" disallow="tram rail_urban rail rail_electric rail_fast ship container cable_car subway aircraft wheelchair scooter drone" speed="27.78" length="15.34" shape="3231.98,1919.46 3247.30,1920.06"/>
        <lane id=":130153815_5_1" index="1" disallow="tram rail_urban rail rail_electric rail_fast ship container cable_car subway aircraft wheelchair scooter drone" speed="27.78" length="15.34" shape="3231.85,1922.66 3247.18,1923.26"/>
        <lane id=":130153815_5_2" index="2" disallow="tram rail_urban rail rail_electric rail_fast ship container cable_car subway aircraft wheelchair scooter drone" speed="27.78" length="15.34" shape="3231.73,1925.86 3247.06,1926.46"/>
        <lane id=":130153815_5_3" index="3" disallow="tram rail_urban rail rail_electric rail_fast ship container cable_car subway aircraft wheelchair scooter drone" speed="27.78" length="15.34" shape="3231.60,1929.06 3246.93,1929.66"/>
    </edge>
    <edge id=":130153815_9" function="internal">
        <lane id=":130153815_9_0" index="0" disallow="tram rail_urban rail rail_electric rail_fast ship container cable_car subway aircraft wheelchair scooter drone" speed="8.31" length="13.50" shape="3231.60,1929.06 3235.89,1929.61 3239.06,1930.89 3241.12,1932.89 3242.05,1935.62"/>
        <lane id=":130153815_9_1" index="1" disallow="tram rail_urban rail rail_electric rail_fast ship container cable_car subway aircraft wheelchair scooter drone" speed="7.59" length="11.11" shape="3231.60,1929.06 3234.48,1929.59 3236.65,1930.92 3238.11,1933.06 3238.88,1936.01"/>
    </edge>
    <edge id=":130154244_0" function="internal">
        <lane id=":130154244_0_0" index="0" disallow="tram rail_urban rail rail_electric rail_fast ship container cable_car subway aircraft wheelchair scooter drone" speed="27.78" length="0.30" shape="3010.01,1668.77 3009.71,1668.76"/>
        <lane id=":130154244_0_1" index="1" disallow="tram rail_urban rail rail_electric rail_fast ship container cable_car subway aircraft wheelchair scooter drone" speed="27.78" length="0.30" shape="3010.12,1665.57 3009.82,1665.56"/>
        <lane id=":130154244_0_2" index="2" disallow="tram rail_urban rail rail_electric rail_fast ship container cable_car subway aircraft wheelchair scooter drone" speed="27.78" length="0.30" shape="3010.24,1662.38 3009.94,1662.37"/>
        <lane id=":130154244_0_3" index="3" disallow="tram rail_urban rail rail_electric rail_fast ship container cable_car subway aircraft wheelchair scooter drone" speed="27.78" length="0.30" shape="3010.35,1659.18 3010.05,1659.17"/>
    </edge>
    <edge id=":1369529307_0" function="internal">
        <lane id=":1369529307_0_0" index="0" disallow="tram rail_urban rail rail_electric rail_fast ship container cable_car subway aircraft wheelchair scooter drone" speed="5.69" length="6.31" shape="3144.03,1915.34 3144.86,1915.90 3146.73,1916.15 3148.78,1916.22 3150.15,1916.23"/>
        <lane id=":1369529307_0_1" index="1" disallow="tram rail_urban rail rail_electric rail_fast ship container cable_car subway aircraft wheelchair scooter drone" speed="6.34" length="8.07" shape="3144.03,1915.34 3144.45,1917.04 3145.59,1918.29 3147.45,1919.09 3150.03,1919.43"/>
    </edge>
    <edge id=":1369529307_2" function="internal">
        <lane id=":1369529307_2_0" index="0" disallow="tram rail_urban rail rail_electric rail_fast ship container cable_car subway aircraft wheelchair scooter drone" speed="13.89" length="15.72" shape="3144.03,1915.34 3144.49,1931.06"/>
    </edge>
    <edge id=":1369529307_3" function="internal">
        <lane id=":1369529307_3_0" index="0" disallow="tram rail_urban rail rail_electric rail_fast ship container cable_car subway aircraft wheelchair scooter drone" speed="27.78" length="11.55" shape="3138.61,1915.78 3150.15,1916.23"/>
        <lane id=":1369529307_3_1" index="1" disallow="tram rail_urban rail rail_electric rail_fast ship container cable_car subway aircraft wheelchair scooter drone" speed="27.78" length="11.55" shape="3138.48,1918.98 3150.03,1919.43"/>
        <lane id=":1369529307_3_2" index="2" disallow="tram rail_urban rail rail_electric rail_fast ship container cable_car subway aircraft wheelchair scooter drone" speed="27.78" length="11.55" shape="3138.36,1922.17 3149.90,1922.63"/>
        <lane id=":1369529307_3_3" index="3" disallow="tram rail_urban rail rail_electric rail_fast ship container cable_car subway aircraft wheelchair scooter drone" speed="27.78" length="11.55" shape="3138.23,1925.37 3149.78,1925.82"/>
    </edge>
    <edge id=":1369529307_7" function="internal">
        <lane id=":1369529307_7_0" index="0" disallow="tram rail_urban rail rail_electric rail_fast ship container cable_car subway aircraft wheelchair scooter drone" speed="6.82" length="9.50" shape="3138.23,1925.37 3140.91,1925.82 3142.85,1926.91 3144.04,1928.66 3144.49,1931.06"/>
    </edge>
    <edge id=":1369529324_0" function="internal">
        <lane id=":1369529324_0_0" index="0" disallow="tram rail_urban rail rail_electric rail_fast ship container cable_car subway aircraft wheelchair scooter drone" speed="6.36" length="9.04" shape="3147.15,1829.57 3144.66,1829.83 3142.91,1830.83 3141.89,1832.58 3141.61,1835.06"/>
    </edge>
    <edge id=":1369529324_1" function="internal">
        <lane id=":1369529324_1_0" index="0" disallow="tram rail_urban rail rail_electric rail_fast ship container cable_car subway aircraft wheelchair scooter drone" speed="13.89" length="11.65" shape="3147.15,1829.57 3135.50,1829.12"/>
        <lane id=":1369529324_1_1" index="1" disallow="tram rail_urban rail rail_electric rail_fast ship container cable_car subway aircraft wheelchair scooter drone" speed="13.89" length="11.65" shape="3147.27,1826.37 3135.63,1825.92"/>
    </edge>
    <edge id=":1369529324_3" function="internal">
        <lane id=":1369529324_3_0" index="0" disallow="tram rail_urban rail rail_electric rail_fast ship container cable_car subway aircraft wheelchair scooter drone" speed="13.89" length="14.63" shape="3141.17,1820.43 3141.61,1835.06"/>
    </edge>
    <edge id=":1369529324_4" function="internal">
        <lane id=":1369529324_4_0" index="0" disallow="tram rail_urban rail rail_electric rail_fast ship container cable_car subway aircraft wheelchair scooter drone" speed="6.36" length="9.04" shape="3141.17,1820.43 3140.89,1822.92 3139.87,1824.66 3138.12,1825.66 3135.63,1825.92"/>
    </edge>
    <edge id=":1416200527_0" function="internal">
        <lane id=":1416200527_0_0" index="0" disallow="tram rail_urban rail rail_electric rail_fast ship container cable_car subway aircraft wheelchair scooter drone" speed="20.84" length="14.83" shape="2739.44,1820.86 2738.84,1816.50 2737.68,1813.62 2736.53,1810.73 2735.97,1806.37"/>
        <lane id=":1416200527_0_1" index="1" disallow="tram rail_urban rail rail_electric rail_fast ship container cable_car subway aircraft wheelchair scooter drone" speed="20.84" length="14.83" shape="2742.64,1820.78 2742.04,1816.44 2740.88,1813.56 2739.73,1810.68 2739.17,1806.33"/>
        <lane id=":1416200527_0_2" index="2" disallow="tram rail_urban rail rail_electric rail_fast ship container cable_car subway aircraft wheelchair scooter drone" speed="20.84" length="14.83" shape="2742.64,1820.78 2742.37,1806.29"/>
    </edge>
    <edge id=":1416200527_3" function="internal">
        <lane id=":1416200527_3_0" index="0" disallow="tram rail_urban rail rail_electric rail_fast ship container cable_car subway aircraft wheelchair scooter drone" speed="3.65" length="1.44" shape="2742.64,1820.78 2743.41,1819.57"/>
    </edge>
    <edge id=":1416200527_10" function="internal">
        <lane id=":1416200527_10_0" index="0" disallow="tram rail_urban rail rail_electric rail_fast ship container cable_car subway aircraft wheelchair scooter drone" speed="3.65" length="3.23" shape="2743.41,1819.57 2744.20,1819.15 2745.01,1819.53 2745.84,1820.71"/>
    </edge>
    <edge id=":1416200527_4" function="internal">
        <lane id=":1416200527_4_0" index="0" disallow="tram rail_urban rail rail_electric rail_fast ship container cable_car subway aircraft wheelchair scooter drone" speed="6.39" length="9.04" shape="2754.59,1815.12 2752.11,1815.40 2750.36,1816.41 2749.33,1818.15 2749.04,1820.63"/>
    </edge>
    <edge id=":1416200527_5" function="internal">
        <lane id=":1416200527_5_0" index="0" disallow="tram rail_urban rail rail_electric rail_fast ship container cable_car subway aircraft wheelchair scooter drone" speed="8.99" length="17.59" shape="2754.68,1811.92 2747.92,1811.39 2743.08,1810.29 2740.17,1808.60 2739.17,1806.33"/>
        <lane id=":1416200527_5_1" index="1" disallow="tram rail_urban rail rail_electric rail_fast ship container cable_car subway aircraft wheelchair scooter drone" speed="8.26" length="14.71" shape="2754.68,1811.92 2749.32,1811.43 2745.48,1810.33 2743.17,1808.62 2742.37,1806.29"/>
    </edge>
    <edge id=":1416200527_7" function="internal">