<?xml version="1.0" encoding="UTF-8"?>

<!-- generated on 2025-04-06 21:35:17 by Eclipse SUMO duarouter Version 1.22.0
<duarouterConfiguration xmlns:xsi="http://www.w3.org/2001/XMLSchema-instance" xsi:noNamespaceSchemaLocation="http://sumo.dlr.de/xsd/duarouterConfiguration.xsd">

    <input>
        <net-file value="./assets/mapachido.net.xml"/>
        <route-files value="./assets\traffic.trips.xml"/>
    </input>

    <output>
        <output-file value="./assets\routes.rou.xml"/>
    </output>

</duarouterConfiguration>
-->

<routes xmlns:xsi="http://www.w3.org/2001/XMLSchema-instance" xsi:noNamespaceSchemaLocation="http://sumo.dlr.de/xsd/routes_file.xsd">
    <vehicle id="5506" depart="0.02" departLane="free" departSpeed="max" fromTaz="431593428#1" toTaz="806165135">
        <route edges="431593428#1 298742240#0 828184376 806165136 827477049#0 431593424 806165135"/>
    </vehicle>
    <vehicle id="2754" depart="0.12" departLane="free" departSpeed="max" fromTaz="298742305#4" toTaz="43990253">
        <route edges="298742305#4 939418129#0 828184376 834333764 834334656#0 834334654 834334653#0 43990253"/>
    </vehicle>
    <vehicle id="10960" depart="0.32" departLane="free" departSpeed="max" fromTaz="827477051" toTaz="806165135">
        <route edges="827477051 431593418 827477050#0 827477049#0 431593424 806165135"/>
    </vehicle>
    <vehicle id="7694" depart="0.42" departLane="free" departSpeed="max" fromTaz="498920722#1" toTaz="806165135">
        <route edges="498920722#1 827477050#0 827477049#0 431593424 806165135"/>
    </vehicle>
    <vehicle id="4585" depart="0.91" departLane="free" departSpeed="max" fromTaz="431593428#1" toTaz="431593420#0">
        <route edges="431593428#1 298742240#0 828184376 834333764 431593422 431593420#0"/>
    </vehicle>
    <vehicle id="7112" depart="0.94" departLane="free" departSpeed="max" fromTaz="498920722#1" toTaz="431593420#0">
        <route edges="498920722#1 806165137 431593422 431593420#0"/>
    </vehicle>
    <vehicle id="10099" depart="0.98" departLane="free" departSpeed="max" fromTaz="827477051" toTaz="431593420#0">
        <route edges="827477051 431593418 827477050#0 827477049#0 431593424 806165135 831014326#0 431593428#1 298742240#0 828184376 834333764 431593422 431593420#0"/>
    </vehicle>
    <vehicle id="10030" depart="1.18" departLane="free" departSpeed="max" fromTaz="827477051" toTaz="431593420#0">
        <route edges="827477051 431593418 827477050#0 827477049#0 431593424 806165135 831014326#0 431593428#1 298742240#0 828184376 834333764 431593422 431593420#0"/>
    </vehicle>
    <vehicle id="9354" depart="1.77" departLane="free" departSpeed="max" fromTaz="827477051" toTaz="1213382698#1">
        <route edges="827477051 431593418 827477050#0 827477049#0 431593424 1213382698#1"/>
    </vehicle>
    <vehicle id="11381" depart="2.18" departLane="free" departSpeed="max" fromTaz="827477051" toTaz="806165135">
        <route edges="827477051 431593418 827477050#0 827477049#0 431593424 806165135"/>
    </vehicle>
    <vehicle id="8575" depart="2.39" departLane="free" departSpeed="max" fromTaz="82685235#5" toTaz="43990253">
        <route edges="82685235#5 1238647412#0 1238647412#1 653450174#0 43990253"/>
    </vehicle>
    <vehicle id="4341" depart="2.54" departLane="free" departSpeed="max" fromTaz="431593428#1" toTaz="431593420#0">
        <route edges="431593428#1 298742240#0 828184376 834333764 431593422 431593420#0"/>
    </vehicle>
    <vehicle id="556" depart="2.75" departLane="free" departSpeed="max" fromTaz="119409677#4" toTaz="43990253">
        <route edges="119409677#4 1238647413 1238647414 1238647412#0 1238647412#1 653450174#0 43990253"/>
    </vehicle>
    <vehicle id="6321" depart="2.79" departLane="free" departSpeed="max" fromTaz="498920722#1" toTaz="1213382698#1">
        <route edges="498920722#1 827477050#0 827477049#0 431593424 1213382698#1"/>
    </vehicle>
    <vehicle id="5425" depart="2.84" departLane="free" departSpeed="max" fromTaz="431593428#1" toTaz="806165135">
        <route edges="431593428#1 298742240#0 828184376 806165136 827477049#0 431593424 806165135"/>
    </vehicle>
    <vehicle id="7115" depart="2.85" departLane="free" departSpeed="max" fromTaz="498920722#1" toTaz="431593420#0">
        <route edges="498920722#1 806165137 431593422 431593420#0"/>
    </vehicle>
    <vehicle id="8550" depart="2.86" departLane="free" departSpeed="max" fromTaz="82685235#5" toTaz="431593421#0">
        <route edges="82685235#5 1238647416 1238645508#0 1238645510#0 1238645510#1 1238645510#2 827083961#0 547727185#3 806165139 431593421#0"/>
    </vehicle>
    <vehicle id="8297" depart="3.61" departLane="free" departSpeed="max" fromTaz="653450175#0" toTaz="806165135">
        <route edges="653450175#0 172365948#2 431597571#0 1238647415#0 1238647415#2 1238647414 1238647416 1238645508#0 1238645509#0 1213382698#0 806165135"/>
    </vehicle>
    <vehicle id="4367" depart="3.62" departLane="free" departSpeed="max" fromTaz="431593428#1" toTaz="431593420#0">
        <route edges="431593428#1 298742240#0 828184376 834333764 431593422 431593420#0"/>
    </vehicle>
    <vehicle id="3915" depart="3.68" departLane="free" departSpeed="max" fromTaz="431593428#1" toTaz="431593420#0">
        <route edges="431593428#1 298742240#0 828184376 834333764 431593422 431593420#0"/>
    </vehicle>
    <vehicle id="81" depart="3.84" departLane="free" departSpeed="max" fromTaz="113540625#2" toTaz="1213382698#1">
        <route edges="113540625#2 1238645509#0 1213382698#0 1213382698#1"/>
    </vehicle>
    <vehicle id="8634" depart="4.11" departLane="free" departSpeed="max" fromTaz="82685235#5" toTaz="806165135">
        <route edges="82685235#5 1238647416 1238645508#0 1238645509#0 1213382698#0 806165135"/>
    </vehicle>
    <vehicle id="4375" depart="4.55" departLane="free" departSpeed="max" fromTaz="431593428#1" toTaz="431593420#0">
        <route edges="431593428#1 298742240#0 828184376 834333764 431593422 431593420#0"/>
    </vehicle>
    <vehicle id="4298" depart="5.03" departLane="free" departSpeed="max" fromTaz="431593428#1" toTaz="431593420#0">
        <route edges="431593428#1 298742240#0 828184376 834333764 431593422 431593420#0"/>
    </vehicle>
    <vehicle id="781" depart="5.11" departLane="free" departSpeed="max" fromTaz="1238647413" toTaz="1213382698#1">
        <route edges="1238647413 1238647414 1238647416 1238645508#0 1238645509#0 1213382698#0 1213382698#1"/>
    </vehicle>
    <vehicle id="4515" depart="6.04" departLane="free" departSpeed="max" fromTaz="431593428#1" toTaz="431593420#0">
        <route edges="431593428#1 298742240#0 828184376 834333764 431593422 431593420#0"/>
    </vehicle>
    <vehicle id="10606" depart="6.54" departLane="free" departSpeed="max" fromTaz="827477051" toTaz="43990253">
        <route edges="827477051 431593418 827477050#0 827477049#0 431593424 806165135 831014326#0 431593428#1 298742240#0 828184376 834333764 834334656#0 834334654 834334653#0 43990253"/>
    </vehicle>
    <vehicle id="5966" depart="6.68" departLane="free" departSpeed="max" fromTaz="498920722#1" toTaz="120209283#0">
        <route edges="498920722#1 806165137 834334656#0 834334654 132742473#10 782465345#0 782465345#1 120209283#0"/>
    </vehicle>
    <vehicle id="900" depart="6.74" departLane="free" departSpeed="max" fromTaz="1238647413" toTaz="1213382698#1">
        <route edges="1238647413 1238647414 1238647416 1238645508#0 1238645509#0 1213382698#0 1213382698#1"/>
    </vehicle>
    <vehicle id="2530" depart="6.88" departLane="free" departSpeed="max" fromTaz="298742305#4" toTaz="1213382698#1">
        <route edges="298742305#4 431593424 1213382698#1"/>
    </vehicle>
    <vehicle id="3044" depart="7.36" departLane="free" departSpeed="max" fromTaz="431593428#1" toTaz="120209283#0">
        <route edges="431593428#1 298742240#0 939418129#1 431593425#0 782465345#1 120209283#0"/>
    </vehicle>
    <vehicle id="44" depart="7.38" departLane="free" departSpeed="max" fromTaz="113540625#2" toTaz="1213382698#1">
        <route edges="113540625#2 1238645509#0 1213382698#0 1213382698#1"/>
    </vehicle>
    <vehicle id="2889" depart="7.43" departLane="free" departSpeed="max" fromTaz="298742305#4" toTaz="806165135">
        <route edges="298742305#4 431593424 806165135"/>
    </vehicle>
    <vehicle id="9456" depart="7.48" departLane="free" departSpeed="max" fromTaz="827477051" toTaz="1213382698#1">
        <route edges="827477051 431593418 827477050#0 827477049#0 431593424 1213382698#1"/>
    </vehicle>
    <vehicle id="2170" depart="7.55" departLane="free" departSpeed="max" fromTaz="1238647413" toTaz="827083961#1">
        <route edges="1238647413 1238647414 1238647416 1238645508#0 1238645510#0 1238645510#1 1238645510#2 827083961#0 827083961#1"/>
    </vehicle>
    <vehicle id="5457" depart="7.63" departLane="free" departSpeed="max" fromTaz="431593428#1" toTaz="806165135">
        <route edges="431593428#1 298742240#0 828184376 806165136 827477049#0 431593424 806165135"/>
    </vehicle>
    <vehicle id="8658" depart="7.73" departLane="free" departSpeed="max" fromTaz="82685235#5" toTaz="806165135">
        <route edges="82685235#5 1238647416 1238645508#0 1238645509#0 1213382698#0 806165135"/>
    </vehicle>
    <vehicle id="9769" depart="7.77" departLane="free" departSpeed="max" fromTaz="827477051" toTaz="431593420#0">
        <route edges="827477051 431593418 827477050#0 827477049#0 431593424 806165135 831014326#0 431593428#1 298742240#0 828184376 834333764 431593422 431593420#0"/>
    </vehicle>
    <vehicle id="10009" depart="7.91" departLane="free" departSpeed="max" fromTaz="827477051" toTaz="431593420#0">
        <route edges="827477051 431593418 827477050#0 827477049#0 431593424 806165135 831014326#0 431593428#1 298742240#0 828184376 834333764 431593422 431593420#0"/>
    </vehicle>
    <vehicle id="3739" depart="7.99" departLane="free" departSpeed="max" fromTaz="431593428#1" toTaz="1213382698#1">
        <route edges="431593428#1 298742240#0 828184376 806165136 827477049#0 431593424 1213382698#1"/>
    </vehicle>
    <vehicle id="6786" depart="8.41" departLane="free" departSpeed="max" fromTaz="498920722#1" toTaz="431593420#0">
        <route edges="498920722#1 806165137 431593422 431593420#0"/>
    </vehicle>
    <vehicle id="4048" depart="8.54" departLane="free" departSpeed="max" fromTaz="431593428#1" toTaz="431593420#0">
        <route edges="431593428#1 298742240#0 828184376 834333764 431593422 431593420#0"/>
    </vehicle>
    <vehicle id="327" depart="8.55" departLane="free" departSpeed="max" fromTaz="113540625#2" toTaz="806165135">
        <route edges="113540625#2 1238645509#0 1213382698#0 806165135"/>
    </vehicle>
    <vehicle id="228" depart="8.81" departLane="free" departSpeed="max" fromTaz="113540625#2" toTaz="431593421#0">
        <route edges="113540625#2 1238645510#0 1238645510#1 1238645510#2 827083961#0 547727185#3 806165139 431593421#0"/>
    </vehicle>
    <vehicle id="9697" depart="8.81" departLane="free" departSpeed="max" fromTaz="827477051" toTaz="431593420#0">
        <route edges="827477051 431593418 827477050#0 827477049#0 431593424 806165135 831014326#0 431593428#1 298742240#0 828184376 834333764 431593422 431593420#0"/>
    </vehicle>
    <vehicle id="9590" depart="8.85" departLane="free" departSpeed="max" fromTaz="827477051" toTaz="172365945#0">
        <route edges="827477051 431593418 827477050#0 827477049#0 431593424 806165135 831014326#0 431593428#1 298742240#0 828184376 834333764 834334656#0 834334654 834334653#0 653450174#2 172365945#0"/>
    </vehicle>
    <vehicle id="541" depart="8.91" departLane="free" departSpeed="max" fromTaz="119409677#4" toTaz="431593420#0">
        <route edges="119409677#4 1238647413 1238647414 1238647416 1238645508#0 1238645509#0 298742240#0 828184376 834333764 431593422 431593420#0"/>
    </vehicle>
    <vehicle id="5744" depart="8.97" departLane="free" departSpeed="max" fromTaz="431593428#1" toTaz="806165135">
        <route edges="431593428#1 298742240#0 828184376 806165136 827477049#0 431593424 806165135"/>
    </vehicle>
    <vehicle id="11612" depart="9.13" departLane="free" departSpeed="max" fromTaz="827477051" toTaz="827083961#1">
        <route edges="827477051 431593418 827477050#0 827477049#0 431593424 806165135 831014326#0 431593428#1 298742240#0 828184376 834333764 834334656#0 827083961#0 827083961#1"/>
    </vehicle>
    <vehicle id="10205" depart="9.14" departLane="free" departSpeed="max" fromTaz="827477051" toTaz="431593420#0">
        <route edges="827477051 431593418 827477050#0 827477049#0 431593424 806165135 831014326#0 431593428#1 298742240#0 828184376 834333764 431593422 431593420#0"/>
    </vehicle>
    <vehicle id="3601" depart="9.29" departLane="free" departSpeed="max" fromTaz="431593428#1" toTaz="1213382698#1">
        <route edges="431593428#1 298742240#0 828184376 806165136 827477049#0 431593424 1213382698#1"/>
    </vehicle>
    <vehicle id="2094" depart="9.29" departLane="free" departSpeed="max" fromTaz="1238647413" toTaz="806165135">
        <route edges="1238647413 1238647414 1238647416 1238645508#0 1238645509#0 1213382698#0 806165135"/>
    </vehicle>
    <vehicle id="1832" depart="9.34" departLane="free" departSpeed="max" fromTaz="1238647413" toTaz="806165135">
        <route edges="1238647413 1238647414 1238647416 1238645508#0 1238645509#0 1213382698#0 806165135"/>
    </vehicle>
    <vehicle id="7082" depart="9.39" departLane="free" departSpeed="max" fromTaz="498920722#1" toTaz="431593420#0">
        <route edges="498920722#1 806165137 431593422 431593420#0"/>
    </vehicle>
    <vehicle id="5140" depart="9.48" departLane="free" departSpeed="max" fromTaz="431593428#1" toTaz="806165135">
        <route edges="431593428#1 298742240#0 828184376 806165136 827477049#0 431593424 806165135"/>
    </vehicle>
    <vehicle id="11690" depart="9.73" departLane="free" departSpeed="max" fromTaz="827477051" toTaz="828996513#0">
        <route edges="827477051 431593418 827477050#0 827477049#0 431593424 806165135 831014326#0 431593428#1 298742240#0 939418129#1 431593425#0 431593425#2 431593425#3 1238647415#2 828996513#0"/>
    </vehicle>
    <vehicle id="10726" depart="10.05" departLane="free" departSpeed="max" fromTaz="827477051" toTaz="43990253">
        <route edges="827477051 431593418 827477050#0 827477049#0 431593424 806165135 831014326#0 431593428#1 298742240#0 828184376 834333764 834334656#0 834334654 834334653#0 43990253"/>
    </vehicle>
    <vehicle id="11009" depart="10.34" departLane="free" departSpeed="max" fromTaz="827477051" toTaz="806165135">
        <route edges="827477051 431593418 827477050#0 827477049#0 431593424 806165135"/>
    </vehicle>
    <vehicle id="11219" depart="10.40" departLane="free" departSpeed="max" fromTaz="827477051" toTaz="806165135">
        <route edges="827477051 431593418 827477050#0 827477049#0 431593424 806165135"/>
    </vehicle>
    <vehicle id="2237" depart="10.87" departLane="free" departSpeed="max" fromTaz="132742473#8" toTaz="1213382698#1">
        <route edges="132742473#8 547727185#1 547727185#3 806165139 431593418 827477050#0 827477049#0 431593424 1213382698#1"/>
    </vehicle>
    <vehicle id="2999" depart="11.00" departLane="free" departSpeed="max" fromTaz="431593428#1" toTaz="120209283#0">
        <route edges="431593428#1 298742240#0 939418129#1 431593425#0 782465345#1 120209283#0"/>
    </vehicle>
    <vehicle id="7512" depart="11.10" departLane="free" departSpeed="max" fromTaz="498920722#1" toTaz="806165135">
        <route edges="498920722#1 827477050#0 827477049#0 431593424 806165135"/>
    </vehicle>
    <vehicle id="7231" depart="11.11" departLane="free" departSpeed="max" fromTaz="498920722#1" toTaz="431593425#5">
        <route edges="498920722#1 806165137 834334656#0 834334654 132742473#10 782465345#0 431593425#2 431593425#3 431593425#5"/>
    </vehicle>
    <vehicle id="11478" depart="11.29" departLane="free" departSpeed="max" fromTaz="827477051" toTaz="806165135">
        <route edges="827477051 431593418 827477050#0 827477049#0 431593424 806165135"/>
    </vehicle>
    <vehicle id="2635" depart="11.33" departLane="free" departSpeed="max" fromTaz="298742305#4" toTaz="431593420#0">
        <route edges="298742305#4 939418129#0 828184376 834333764 431593422 431593420#0"/>
    </vehicle>
    <vehicle id="10858" depart="11.59" departLane="free" departSpeed="max" fromTaz="827477051" toTaz="806165134#0">
        <route edges="827477051 431593418 827477050#0 806165134#0"/>
    </vehicle>
    <vehicle id="6502" depart="11.86" departLane="free" departSpeed="max" fromTaz="498920722#1" toTaz="1213382698#1">
        <route edges="498920722#1 827477050#0 827477049#0 431593424 1213382698#1"/>
    </vehicle>
    <vehicle id="8809" depart="12.00" departLane="free" departSpeed="max" fromTaz="827477051" toTaz="120209283#0">
        <route edges="827477051 431593418 827477050#0 827477049#0 431593424 806165135 831014326#0 431593428#1 298742240#0 939418129#1 431593425#0 782465345#1 120209283#0"/>
    </vehicle>
    <vehicle id="3397" depart="12.02" departLane="free" departSpeed="max" fromTaz="431593428#1" toTaz="1213382698#1">
        <route edges="431593428#1 298742240#0 828184376 806165136 827477049#0 431593424 1213382698#1"/>
    </vehicle>
    <vehicle id="7870" depart="12.76" departLane="free" departSpeed="max" fromTaz="498920722#1" toTaz="806165135">
        <route edges="498920722#1 827477050#0 827477049#0 431593424 806165135"/>
    </vehicle>
    <vehicle id="2131" depart="12.84" departLane="free" departSpeed="max" fromTaz="1238647413" toTaz="806165135">
        <route edges="1238647413 1238647414 1238647416 1238645508#0 1238645509#0 1213382698#0 806165135"/>
    </vehicle>
    <vehicle id="317" depart="12.93" departLane="free" departSpeed="max" fromTaz="113540625#2" toTaz="806165135">
        <route edges="113540625#2 1238645509#0 1213382698#0 806165135"/>
    </vehicle>
    <vehicle id="9040" depart="13.47" departLane="free" departSpeed="max" fromTaz="827477051" toTaz="1213382698#1">
        <route edges="827477051 431593418 827477050#0 827477049#0 431593424 1213382698#1"/>
    </vehicle>
    <vehicle id="10798" depart="14.02" departLane="free" departSpeed="max" fromTaz="827477051" toTaz="43990253">
        <route edges="827477051 431593418 827477050#0 827477049#0 431593424 806165135 831014326#0 431593428#1 298742240#0 828184376 834333764 834334656#0 834334654 834334653#0 43990253"/>
    </vehicle>
    <vehicle id="4702" depart="14.05" departLane="free" departSpeed="max" fromTaz="431593428#1" toTaz="431593425#5">
        <route edges="431593428#1 298742240#0 939418129#1 431593425#0 431593425#2 431593425#3 431593425#5"/>
    </vehicle>
    <vehicle id="1572" depart="14.07" departLane="free" departSpeed="max" fromTaz="1238647413" toTaz="431593425#5">
        <route edges="1238647413 1238647414 1238647412#0 431593425#3 431593425#5"/>
    </vehicle>
    <vehicle id="10696" depart="14.52" departLane="free" departSpeed="max" fromTaz="827477051" toTaz="43990253">
        <route edges="827477051 431593418 827477050#0 827477049#0 431593424 806165135 831014326#0 431593428#1 298742240#0 828184376 834333764 834334656#0 834334654 834334653#0 43990253"/>
    </vehicle>
    <vehicle id="3355" depart="14.64" departLane="free" departSpeed="max" fromTaz="431593428#1" toTaz="1213382698#1">
        <route edges="431593428#1 298742240#0 828184376 806165136 827477049#0 431593424 1213382698#1"/>
    </vehicle>
    <vehicle id="1993" depart="14.71" departLane="free" departSpeed="max" fromTaz="1238647413" toTaz="806165135">
        <route edges="1238647413 1238647414 1238647416 1238645508#0 1238645509#0 1213382698#0 806165135"/>
    </vehicle>
    <vehicle id="9082" depart="14.75" departLane="free" departSpeed="max" fromTaz="827477051" toTaz="1213382698#1">
        <route edges="827477051 431593418 827477050#0 827477049#0 431593424 1213382698#1"/>
    </vehicle>
    <vehicle id="4064" depart="14.89" departLane="free" departSpeed="max" fromTaz="431593428#1" toTaz="431593420#0">
        <route edges="431593428#1 298742240#0 828184376 834333764 431593422 431593420#0"/>
    </vehicle>
    <vehicle id="1318" depart="14.93" departLane="free" departSpeed="max" fromTaz="1238647413" toTaz="431593420#0">
        <route edges="1238647413 1238647414 1238647416 1238645508#0 1238645509#0 298742240#0 828184376 834333764 431593422 431593420#0"/>
    </vehicle>
    <vehicle id="3349" depart="14.94" departLane="free" departSpeed="max" fromTaz="431593428#1" toTaz="1213382698#1">
        <route edges="431593428#1 298742240#0 828184376 806165136 827477049#0 431593424 1213382698#1"/>
    </vehicle>
    <vehicle id="4321" depart="14.99" departLane="free" departSpeed="max" fromTaz="431593428#1" toTaz="431593420#0">
        <route edges="431593428#1 298742240#0 828184376 834333764 431593422 431593420#0"/>
    </vehicle>
    <vehicle id="6064" depart="15.04" departLane="free" departSpeed="max" fromTaz="498920722#1" toTaz="120209283#0">
        <route edges="498920722#1 806165137 834334656#0 834334654 132742473#10 782465345#0 782465345#1 120209283#0"/>
    </vehicle>
    <vehicle id="11006" depart="15.36" departLane="free" departSpeed="max" fromTaz="827477051" toTaz="806165135">
        <route edges="827477051 431593418 827477050#0 827477049#0 431593424 806165135"/>
    </vehicle>
    <vehicle id="8282" depart="15.50" departLane="free" departSpeed="max" fromTaz="653450175#0" toTaz="806165135">
        <route edges="653450175#0 172365948#2 431597571#0 1238647415#0 1238647415#2 1238647414 1238647416 1238645508#0 1238645509#0 1213382698#0 806165135"/>
    </vehicle>
    <vehicle id="3572" depart="15.55" departLane="free" departSpeed="max" fromTaz="431593428#1" toTaz="1213382698#1">
        <route edges="431593428#1 298742240#0 828184376 806165136 827477049#0 431593424 1213382698#1"/>
    </vehicle>
    <vehicle id="9323" depart="15.59" departLane="free" departSpeed="max" fromTaz="827477051" toTaz="1213382698#1">
        <route edges="827477051 431593418 827477050#0 827477049#0 431593424 1213382698#1"/>
    </vehicle>
    <vehicle id="4796" depart="15.70" departLane="free" departSpeed="max" fromTaz="431593428#1" toTaz="43990253">
        <route edges="431593428#1 298742240#0 828184376 834333764 834334656#0 834334654 834334653#0 43990253"/>
    </vehicle>
    <vehicle id="6846" depart="15.74" departLane="free" departSpeed="max" fromTaz="498920722#1" toTaz="431593420#0">
        <route edges="498920722#1 806165137 431593422 431593420#0"/>
    </vehicle>
    <vehicle id="5641" depart="15.87" departLane="free" departSpeed="max" fromTaz="431593428#1" toTaz="806165135">
        <route edges="431593428#1 298742240#0 828184376 806165136 827477049#0 431593424 806165135"/>
    </vehicle>
    <vehicle id="2534" depart="15.90" departLane="free" departSpeed="max" fromTaz="298742305#4" toTaz="1213382698#1">
        <route edges="298742305#4 431593424 1213382698#1"/>
    </vehicle>
    <vehicle id="10152" depart="16.00" departLane="free" departSpeed="max" fromTaz="827477051" toTaz="431593420#0">
        <route edges="827477051 431593418 827477050#0 827477049#0 431593424 806165135 831014326#0 431593428#1 298742240#0 828184376 834333764 431593422 431593420#0"/>
    </vehicle>
    <vehicle id="10966" depart="16.41" departLane="free" departSpeed="max" fromTaz="827477051" toTaz="806165135">
        <route edges="827477051 431593418 827477050#0 827477049#0 431593424 806165135"/>
    </vehicle>
    <vehicle id="11149" depart="16.41" departLane="free" departSpeed="max" fromTaz="827477051" toTaz="806165135">
        <route edges="827477051 431593418 827477050#0 827477049#0 431593424 806165135"/>
    </vehicle>
    <vehicle id="9783" depart="16.69" departLane="free" departSpeed="max" fromTaz="827477051" toTaz="431593420#0">
        <route edges="827477051 431593418 827477050#0 827477049#0 431593424 806165135 831014326#0 431593428#1 298742240#0 828184376 834333764 431593422 431593420#0"/>
    </vehicle>
    <vehicle id="7620" depart="16.70" departLane="free" departSpeed="max" fromTaz="498920722#1" toTaz="806165135">
        <route edges="498920722#1 827477050#0 827477049#0 431593424 806165135"/>
    </vehicle>
    <vehicle id="4571" depart="16.88" departLane="free" departSpeed="max" fromTaz="431593428#1" toTaz="431593420#0">
        <route edges="431593428#1 298742240#0 828184376 834333764 431593422 431593420#0"/>
    </vehicle>
    <vehicle id="3938" depart="17.21" departLane="free" departSpeed="max" fromTaz="431593428#1" toTaz="431593420#0">
        <route edges="431593428#1 298742240#0 828184376 834333764 431593422 431593420#0"/>
    </vehicle>
    <vehicle id="2603" depart="17.55" departLane="free" departSpeed="max" fromTaz="298742305#4" toTaz="431593420#0">
        <route edges="298742305#4 939418129#0 828184376 834333764 431593422 431593420#0"/>
    </vehicle>
    <vehicle id="3446" depart="18.86" departLane="free" departSpeed="max" fromTaz="431593428#1" toTaz="1213382698#1">
        <route edges="431593428#1 298742240#0 828184376 806165136 827477049#0 431593424 1213382698#1"/>
    </vehicle>
    <vehicle id="11010" depart="18.93" departLane="free" departSpeed="max" fromTaz="827477051" toTaz="806165135">
        <route edges="827477051 431593418 827477050#0 827477049#0 431593424 806165135"/>
    </vehicle>
    <vehicle id="4531" depart="18.94" departLane="free" departSpeed="max" fromTaz="431593428#1" toTaz="431593420#0">
        <route edges="431593428#1 298742240#0 828184376 834333764 431593422 431593420#0"/>
    </vehicle>
    <vehicle id="6857" depart="18.95" departLane="free" departSpeed="max" fromTaz="498920722#1" toTaz="431593420#0">
        <route edges="498920722#1 806165137 431593422 431593420#0"/>
    </vehicle>
    <vehicle id="744" depart="18.97" departLane="free" departSpeed="max" fromTaz="1238647413" toTaz="1213382698#1">
        <route edges="1238647413 1238647414 1238647416 1238645508#0 1238645509#0 1213382698#0 1213382698#1"/>
    </vehicle>
    <vehicle id="9403" depart="19.20" departLane="free" departSpeed="max" fromTaz="827477051" toTaz="1213382698#1">
        <route edges="827477051 431593418 827477050#0 827477049#0 431593424 1213382698#1"/>
    </vehicle>
    <vehicle id="9797" depart="19.33" departLane="free" departSpeed="max" fromTaz="827477051" toTaz="431593420#0">
        <route edges="827477051 431593418 827477050#0 827477049#0 431593424 806165135 831014326#0 431593428#1 298742240#0 828184376 834333764 431593422 431593420#0"/>
    </vehicle>
    <vehicle id="9551" depart="19.39" departLane="free" departSpeed="max" fromTaz="827477051" toTaz="1213382698#1">
        <route edges="827477051 431593418 827477050#0 827477049#0 431593424 1213382698#1"/>
    </vehicle>
    <vehicle id="29" depart="19.60" departLane="free" departSpeed="max" fromTaz="113540625#2" toTaz="1213382698#1">
        <route edges="113540625#2 1238645509#0 1213382698#0 1213382698#1"/>
    </vehicle>
    <vehicle id="409" depart="19.61" departLane="free" departSpeed="max" fromTaz="113540625#2" toTaz="828996513#0">
        <route edges="113540625#2 1238645510#0 431593425#0 431593425#2 431593425#3 1238647415#2 828996513#0"/>
    </vehicle>
    <vehicle id="2507" depart="19.73" departLane="free" departSpeed="max" fromTaz="298742305#4" toTaz="1213382698#1">
        <route edges="298742305#4 431593424 1213382698#1"/>
    </vehicle>
    <vehicle id="5747" depart="19.73" departLane="free" departSpeed="max" fromTaz="431593428#1" toTaz="806165135">
        <route edges="431593428#1 298742240#0 828184376 806165136 827477049#0 431593424 806165135"/>
    </vehicle>
    <vehicle id="8058" depart="19.82" departLane="free" departSpeed="max" fromTaz="498920722#1" toTaz="828996513#0">
        <route edges="498920722#1 806165137 834334656#0 834334654 132742473#10 782465345#0 431593425#2 431593425#3 1238647415#2 828996513#0"/>
    </vehicle>
    <vehicle id="9469" depart="20.09" departLane="free" departSpeed="max" fromTaz="827477051" toTaz="1213382698#1">
        <route edges="827477051 431593418 827477050#0 827477049#0 431593424 1213382698#1"/>
    </vehicle>
    <vehicle id="603" depart="20.20" departLane="free" departSpeed="max" fromTaz="119409677#4" toTaz="806165135">
        <route edges="119409677#4 1238647413 1238647414 1238647416 1238645508#0 1238645509#0 1213382698#0 806165135"/>
    </vehicle>
    <vehicle id="4626" depart="21.21" departLane="free" departSpeed="max" fromTaz="431593428#1" toTaz="431593421#0">
        <route edges="431593428#1 298742240#0 828184376 834333764 834334656#0 827083961#0 547727185#3 806165139 431593421#0"/>
    </vehicle>
    <vehicle id="4230" depart="21.26" departLane="free" departSpeed="max" fromTaz="431593428#1" toTaz="431593420#0">
        <route edges="431593428#1 298742240#0 828184376 834333764 431593422 431593420#0"/>
    </vehicle>
    <vehicle id="2057" depart="21.26" departLane="free" departSpeed="max" fromTaz="1238647413" toTaz="806165135">
        <route edges="1238647413 1238647414 1238647416 1238645508#0 1238645509#0 1213382698#0 806165135"/>
    </vehicle>
    <vehicle id="11166" depart="21.29" departLane="free" departSpeed="max" fromTaz="827477051" toTaz="806165135">
        <route edges="827477051 431593418 827477050#0 827477049#0 431593424 806165135"/>
    </vehicle>
    <vehicle id="2788" depart="21.41" departLane="free" departSpeed="max" fromTaz="298742305#4" toTaz="806165134#0">
        <route edges="298742305#4 939418129#0 828184376 806165136 806165134#0"/>
    </vehicle>
    <vehicle id="7953" depart="21.49" departLane="free" departSpeed="max" fromTaz="498920722#1" toTaz="806165135">
        <route edges="498920722#1 827477050#0 827477049#0 431593424 806165135"/>
    </vehicle>
    <vehicle id="11578" depart="21.74" departLane="free" departSpeed="max" fromTaz="827477051" toTaz="806165135">
        <route edges="827477051 431593418 827477050#0 827477049#0 431593424 806165135"/>
    </vehicle>