<?xml version="1.0" encoding="UTF-8"?>

<!-- generated on 2025-03-30 19:05:01 by Eclipse SUMO duarouter Version 1.21.0
<duarouterConfiguration xmlns:xsi="http://www.w3.org/2001/XMLSchema-instance" xsi:noNamespaceSchemaLocation="http://sumo.dlr.de/xsd/duarouterConfiguration.xsd">

    <input>
        <net-file value="./assets/network.net.xml"/>
        <route-files value="./assets\traffic.trips.xml"/>
    </input>

    <output>
        <output-file value="./assets\routes.rou.xml"/>
    </output>

</duarouterConfiguration>
-->

<routes xmlns:xsi="http://www.w3.org/2001/XMLSchema-instance" xsi:noNamespaceSchemaLocation="http://sumo.dlr.de/xsd/routes_file.xsd">
    <vehicle id="72" depart="0.56" departLane="free" departSpeed="max" fromTaz="IL" toTaz="AD">
        <route edges="IL LI IH HD DA AD"/>
    </vehicle>
    <vehicle id="30" depart="1.35" departLane="free" departSpeed="max" fromTaz="AD" toTaz="IL">
        <route edges="AD DH HI IL"/>
    </vehicle>
    <vehicle id="89" depart="1.75" departLane="free" departSpeed="max" fromTaz="IL" toTaz="IL">
        <route edges="IL"/>
    </vehicle>
    <vehicle id="85" depart="2.44" departLane="free" departSpeed="max" fromTaz="IL" toTaz="IL">
        <route edges="IL"/>
    </vehicle>
    <vehicle id="12" depart="2.95" departLane="free" departSpeed="max" fromTaz="AD" toTaz="AD">
        <route edges="AD"/>
    </vehicle>
    <vehicle id="17" depart="4.05" departLane="free" departSpeed="max" fromTaz="AD" toTaz="AD">
        <route edges="AD"/>
    </vehicle>
    <vehicle id="55" depart="4.46" departLane="free" departSpeed="max" fromTaz="IL" toTaz="AD">
        <route edges="IL LI IH HD DA AD"/>
    </vehicle>
    <vehicle id="95" depart="4.74" departLane="free" departSpeed="max" fromTaz="IL" toTaz="IL">
        <route edges="IL"/>
    </vehicle>
    <vehicle id="27" depart="4.76" departLane="free" departSpeed="max" fromTaz="AD" toTaz="IL">
        <route edges="AD DH HI IL"/>
    </vehicle>
    <vehicle id="62" depart="5.06" departLane="free" departSpeed="max" fromTaz="IL" toTaz="AD">
        <route edges="IL LI IH HD DA AD"/>
    </vehicle>
    <vehicle id="42" depart="5.40" departLane="free" departSpeed="max" fromTaz="AD" toTaz="IL">
        <route edges="AD DH HI IL"/>
    </vehicle>
    <vehicle id="54" depart="6.76" departLane="free" departSpeed="max" fromTaz="IL" toTaz="AD">
        <route edges="IL LI IH HD DA AD"/>
    </vehicle>
    <vehicle id="28" depart="7.20" departLane="free" departSpeed="max" fromTaz="AD" toTaz="IL">
        <route edges="AD DH HI IL"/>
    </vehicle>
    <vehicle id="46" depart="7.38" departLane="free" departSpeed="max" fromTaz="AD" toTaz="IL">
        <route edges="AD DH HI IL"/>
    </vehicle>
    <vehicle id="52" depart="8.13" departLane="free" departSpeed="max" fromTaz="IL" toTaz="AD">
        <route edges="IL LI IH HD DA AD"/>
    </vehicle>
    <vehicle id="8" depart="8.27" departLane="free" departSpeed="max" fromTaz="AD" toTaz="AD">
        <route edges="AD"/>
    </vehicle>
    <vehicle id="1" depart="9.51" departLane="free" departSpeed="max" fromTaz="AD" toTaz="AD">
        <route edges="AD"/>
    </vehicle>
    <vehicle id="75" depart="9.82" departLane="free" departSpeed="max" fromTaz="IL" toTaz="IL">
        <route edges="IL"/>
    </vehicle>
    <vehicle id="2" depart="10.32" departLane="free" departSpeed="max" fromTaz="AD" toTaz="AD">
        <route edges="AD"/>
    </vehicle>
    <vehicle id="41" depart="10.41" departLane="free" departSpeed="max" fromTaz="AD" toTaz="IL">
        <route edges="AD DH HI IL"/>
    </vehicle>
    <vehicle id="70" depart="10.94" departLane="free" departSpeed="max" fromTaz="IL" toTaz="AD">
        <route edges="IL LI IH HD DA AD"/>
    </vehicle>
    <vehicle id="20" depart="11.32" departLane="free" departSpeed="max" fromTaz="AD" toTaz="AD">
        <route edges="AD"/>
    </vehicle>
    <vehicle id="21" depart="11.49" departLane="free" departSpeed="max" fromTaz="AD" toTaz="AD">
        <route edges="AD"/>
    </vehicle>
    <vehicle id="26" depart="12.79" departLane="free" departSpeed="max" fromTaz="AD" toTaz="IL">
        <route edges="AD DH HI IL"/>
    </vehicle>
    <vehicle id="22" depart="13.02" departLane="free" departSpeed="max" fromTaz="AD" toTaz="AD">
        <route edges="AD"/>
    </vehicle>
    <vehicle id="18" depart="13.47" departLane="free" departSpeed="max" fromTaz="AD" toTaz="AD">
        <route edges="AD"/>
    </vehicle>
    <vehicle id="10" depart="13.56" departLane="free" departSpeed="max" fromTaz="AD" toTaz="AD">
        <route edges="AD"/>
    </vehicle>
    <vehicle id="84" depart="14.19" departLane="free" departSpeed="max" fromTaz="IL" toTaz="IL">
        <route edges="IL"/>
    </vehicle>
    <vehicle id="63" depart="14.73" departLane="free" departSpeed="max" fromTaz="IL" toTaz="AD">
        <route edges="IL LI IH HD DA AD"/>
    </vehicle>
    <vehicle id="90" depart="15.04" departLane="free" departSpeed="max" fromTaz="IL" toTaz="IL">
        <route edges="IL"/>
    </vehicle>
    <vehicle id="5" depart="15.39" departLane="free" departSpeed="max" fromTaz="AD" toTaz="AD">
        <route edges="AD"/>
    </vehicle>
    <vehicle id="79" depart="15.97" departLane="free" departSpeed="max" fromTaz="IL" toTaz="IL">
        <route edges="IL"/>
    </vehicle>
    <vehicle id="88" depart="16.72" departLane="free" departSpeed="max" fromTaz="IL" toTaz="IL">
        <route edges="IL"/>
    </vehicle>
    <vehicle id="13" depart="16.83" departLane="free" departSpeed="max" fromTaz="AD" toTaz="AD">
        <route edges="AD"/>
    </vehicle>
    <vehicle id="64" depart="17.29" departLane="free" departSpeed="max" fromTaz="IL" toTaz="AD">
        <route edges="IL LI IH HD DA AD"/>
    </vehicle>
    <vehicle id="16" depart="17.63" departLane="free" departSpeed="max" fromTaz="AD" toTaz="AD">
        <route edges="AD"/>
    </vehicle>
    <vehicle id="67" depart="17.77" departLane="free" departSpeed="max" fromTaz="IL" toTaz="AD">
        <route edges="IL LI IH HD DA AD"/>
    </vehicle>
    <vehicle id="34" depart="18.07" departLane="free" departSpeed="max" fromTaz="AD" toTaz="IL">
        <route edges="AD DH HI IL"/>
    </vehicle>
    <vehicle id="29" depart="18.13" departLane="free" departSpeed="max" fromTaz="AD" toTaz="IL">
        <route edges="AD DH HI IL"/>
    </vehicle>
    <vehicle id="57" depart="18.62" departLane="free" departSpeed="max" fromTaz="IL" toTaz="AD">
        <route edges="IL LI IH HD DA AD"/>
    </vehicle>
    <vehicle id="73" depart="18.68" departLane="free" departSpeed="max" fromTaz="IL" toTaz="AD">
        <route edges="IL LI IH HD DA AD"/>
    </vehicle>
    <vehicle id="4" depart="18.88" departLane="free" departSpeed="max" fromTaz="AD" toTaz="AD">
        <route edges="AD"/>
    </vehicle>
    <vehicle id="15" depart="19.06" departLane="free" departSpeed="max" fromTaz="AD" toTaz="AD">
        <route edges="AD"/>
    </vehicle>
    <vehicle id="43" depart="20.63" departLane="free" departSpeed="max" fromTaz="AD" toTaz="IL">
        <route edges="AD DH HI IL"/>
    </vehicle>
    <vehicle id="96" depart="21.68" departLane="free" departSpeed="max" fromTaz="IL" toTaz="IL">
        <route edges="IL"/>
    </vehicle>
    <vehicle id="45" depart="22.97" departLane="free" departSpeed="max" fromTaz="AD" toTaz="IL">
        <route edges="AD DH HI IL"/>
    </vehicle>
    <vehicle id="97" depart="23.02" departLane="free" departSpeed="max" fromTaz="IL" toTaz="IL">
        <route edges="IL"/>
    </vehicle>
    <vehicle id="60" depart="24.58" departLane="free" departSpeed="max" fromTaz="IL" toTaz="AD">
        <route edges="IL LI IH HD DA AD"/>
    </vehicle>
    <vehicle id="32" depart="24.83" departLane="free" departSpeed="max" fromTaz="AD" toTaz="IL">
        <route edges="AD DH HI IL"/>
    </vehicle>
    <vehicle id="76" depart="25.68" departLane="free" departSpeed="max" fromTaz="IL" toTaz="IL">
        <route edges="IL"/>
    </vehicle>
    <vehicle id="78" depart="25.71" departLane="free" departSpeed="max" fromTaz="IL" toTaz="IL">
        <route edges="IL"/>
    </vehicle>
    <vehicle id="61" depart="27.48" departLane="free" departSpeed="max" fromTaz="IL" toTaz="AD">
        <route edges="IL LI IH HD DA AD"/>
    </vehicle>
    <vehicle id="77" depart="27.74" departLane="free" departSpeed="max" fromTaz="IL" toTaz="IL">
        <route edges="IL"/>
    </vehicle>
    <vehicle id="94" depart="29.98" departLane="free" departSpeed="max" fromTaz="IL" toTaz="IL">
        <route edges="IL"/>
    </vehicle>
    <vehicle id="19" depart="31.95" departLane="free" departSpeed="max" fromTaz="AD" toTaz="AD">
        <route edges="AD"/>
    </vehicle>
    <vehicle id="91" depart="33.12" departLane="free" departSpeed="max" fromTaz="IL" toTaz="IL">
        <route edges="IL"/>
    </vehicle>
    <vehicle id="9" depart="33.45" departLane="free" departSpeed="max" fromTaz="AD" toTaz="AD">
        <route edges="AD"/>
    </vehicle>
    <vehicle id="0" depart="35.35" departLane="free" departSpeed="max" fromTaz="AD" toTaz="AD">
        <route edges="AD"/>
    </vehicle>
    <vehicle id="87" depart="35.85" departLane="free" departSpeed="max" fromTaz="IL" toTaz="IL">
        <route edges="IL"/>
    </vehicle>
    <vehicle id="23" depart="35.86" departLane="free" departSpeed="max" fromTaz="AD" toTaz="AD">
        <route edges="AD"/>
    </vehicle>
    <vehicle id="44" depart="35.98" departLane="free" departSpeed="max" fromTaz="AD" toTaz="IL">
        <route edges="AD DH HI IL"/>
    </vehicle>
    <vehicle id="47" depart="36.13" departLane="free" departSpeed="max" fromTaz="AD" toTaz="IL">
        <route edges="AD DH HI IL"/>
    </vehicle>
    <vehicle id="39" depart="36.17" departLane="free" departSpeed="max" fromTaz="AD" toTaz="IL">
        <route edges="AD DH HI IL"/>
    </vehicle>
    <vehicle id="56" depart="37.21" departLane="free" departSpeed="max" fromTaz="IL" toTaz="AD">
        <route edges="IL LI IH HD DA AD"/>
    </vehicle>
    <vehicle id="31" depart="37.23" departLane="free" departSpeed="max" fromTaz="AD" toTaz="IL">
        <route edges="AD DH HI IL"/>
    </vehicle>
    <vehicle id="98" depart="38.04" departLane="free" departSpeed="max" fromTaz="IL" toTaz="IL">
        <route edges="IL"/>
    </vehicle>
    <vehicle id="3" depart="38.16" departLane="free" departSpeed="max" fromTaz="AD" toTaz="AD">
        <route edges="AD"/>
    </vehicle>
    <vehicle id="92" depart="38.68" departLane="free" departSpeed="max" fromTaz="IL" toTaz="IL">
        <route edges="IL"/>
    </vehicle>
    <vehicle id="86" depart="39.75" departLane="free" departSpeed="max" fromTaz="IL" toTaz="IL">
        <route edges="IL"/>
    </vehicle>
    <vehicle id="59" depart="39.93" departLane="free" departSpeed="max" fromTaz="IL" toTaz="AD">
        <route edges="IL LI IH HD DA AD"/>
    </vehicle>
    <vehicle id="50" depart="40.37" departLane="free" departSpeed="max" fromTaz="IL" toTaz="AD">
        <route edges="IL LI IH HD DA AD"/>
    </vehicle>
    <vehicle id="83" depart="41.10" departLane="free" departSpeed="max" fromTaz="IL" toTaz="IL">
        <route edges="IL"/>
    </vehicle>
    <vehicle id="33" depart="42.14" departLane="free" departSpeed="max" fromTaz="AD" toTaz="IL">
        <route edges="AD DH HI IL"/>
    </vehicle>
    <vehicle id="99" depart="42.40" departLane="free" departSpeed="max" fromTaz="IL" toTaz="IL">
        <route edges="IL"/>
    </vehicle>
    <vehicle id="58" depart="42.63" departLane="free" departSpeed="max" fromTaz="IL" toTaz="AD">
        <route edges="IL LI IH HD DA AD"/>
    </vehicle>
    <vehicle id="25" depart="43.09" departLane="free" departSpeed="max" fromTaz="AD" toTaz="IL">
        <route edges="AD DH HI IL"/>
    </vehicle>
    <vehicle id="14" depart="43.38" departLane="free" departSpeed="max" fromTaz="AD" toTaz="AD">
        <route edges="AD"/>
    </vehicle>
    <vehicle id="48" depart="43.64" departLane="free" departSpeed="max" fromTaz="AD" toTaz="IL">
        <route edges="AD DH HI IL"/>
    </vehicle>
    <vehicle id="81" depart="45.77" departLane="free" departSpeed="max" fromTaz="IL" toTaz="IL">
        <route edges="IL"/>
    </vehicle>
    <vehicle id="69" depart="46.66" departLane="free" departSpeed="max" fromTaz="IL" toTaz="AD">
        <route edges="IL LI IH HD DA AD"/>
    </vehicle>
    <vehicle id="65" depart="47.37" departLane="free" departSpeed="max" fromTaz="IL" toTaz="AD">
        <route edges="IL LI IH HD DA AD"/>
    </vehicle>
    <vehicle id="38" depart="48.66" departLane="free" departSpeed="max" fromTaz="AD" toTaz="IL">
        <route edges="AD DH HI IL"/>
    </vehicle>
    <vehicle id="53" depart="49.19" departLane="free" departSpeed="max" fromTaz="IL" toTaz="AD">
        <route edges="IL LI IH HD DA AD"/>
    </vehicle>
    <vehicle id="6" depart="50.04" departLane="free" departSpeed="max" fromTaz="AD" toTaz="AD">
        <route edges="AD"/>
    </vehicle>
    <vehicle id="71" depart="50.65" departLane="free" departSpeed="max" fromTaz="IL" toTaz="AD">
        <route edges="IL LI IH HD DA AD"/>
    </vehicle>
    <vehicle id="74" depart="51.51" departLane="free" departSpeed="max" fromTaz="IL" toTaz="AD">
        <route edges="IL LI IH HD DA AD"/>
    </vehicle>
    <vehicle id="37" depart="51.51" departLane="free" departSpeed="max" fromTaz="AD" toTaz="IL">
        <route edges="AD DH HI IL"/>
    </vehicle>
    <vehicle id="93" depart="51.85" departLane="free" departSpeed="max" fromTaz="IL" toTaz="IL">
        <route edges="IL"/>
    </vehicle>
    <vehicle id="11" depart="52.36" departLane="free" departSpeed="max" fromTaz="AD" toTaz="AD">
        <route edges="AD"/>
    </vehicle>
    <vehicle id="49" depart="52.60" departLane="free" departSpeed="max" fromTaz="AD" toTaz="IL">
        <route edges="AD DH HI IL"/>
    </vehicle>
    <vehicle id="68" depart="52.86" departLane="free" departSpeed="max" fromTaz="IL" toTaz="AD">
        <route edges="IL LI IH HD DA AD"/>
    </vehicle>
    <vehicle id="82" depart="53.86" departLane="free" departSpeed="max" fromTaz="IL" toTaz="IL">
        <route edges="IL"/>
    </vehicle>
    <vehicle id="24" depart="55.48" departLane="free" departSpeed="max" fromTaz="AD" toTaz="AD">
        <route edges="AD"/>
    </vehicle>
    <vehicle id="40" depart="55.80" departLane="free" departSpeed="max" fromTaz="AD" toTaz="IL">
        <route edges="AD DH HI IL"/>
    </vehicle>
    <vehicle id="7" depart="56.85" departLane="free" departSpeed="max" fromTaz="AD" toTaz="AD">
        <route edges="AD"/>
    </vehicle>
    <vehicle id="36" depart="57.03" departLane="free" departSpeed="max" fromTaz="AD" toTaz="IL">
        <route edges="AD DH HI IL"/>
    </vehicle>
    <vehicle id="51" depart="57.85" departLane="free" departSpeed="max" fromTaz="IL" toTaz="AD">
        <route edges="IL LI IH HD DA AD"/>
    </vehicle>
    <vehicle id="80" depart="57.98" departLane="free" departSpeed="max" fromTaz="IL" toTaz="IL">
        <route edges="IL"/>
    </vehicle>
    <vehicle id="35" depart="58.99" departLane="free" departSpeed="max" fromTaz="AD" toTaz="IL">
        <route edges="AD DH HI IL"/>
    </vehicle>
    <vehicle id="66" depart="59.25" departLane="free" departSpeed="max" fromTaz="IL" toTaz="AD">
        <route edges="IL LI IH HD DA AD"/>
    </vehicle>
</routes>
