
        <configuration>
            <input>
                <net-file value="network.net.xml"/>
                <route-files value="ruta.rou.xml"/>
            </input>
        </configuration>
        