
        <configuration>
            <input>
                <net-file value="red_hidalgo-federalismo.net.xml"/>
                <route-files value="hf.trips.xml"/>
            </input>
        </configuration>
        