
        <configuration>
            <input>
                <net-file value="mapachido.net.xml"/>
                <route-files value="routes.rou.xml"/>
            </input>
        </configuration>
        