<tazs>
	<taz id="AD" edges="AD"/>
	<taz id="IL" edges="IL"/>
</tazs>
