<tazs>
	<taz id="AD" edges="AD"/>
	<taz id="IL" edges="IL"/>
	<taz id="HK" edges="HK"/>
</tazs>
