<tazs>
	<taz id="132742473#8" edges="132742473#8"/>
	<taz id="298742305#4" edges="298742305#4"/>
	<taz id="498920722#1" edges="498920722#1"/>
	<taz id="113540625#2" edges="113540625#2"/>
	<taz id="82685235#5" edges="82685235#5"/>
	<taz id="119409677#4" edges="119409677#4"/>
	<taz id="653450175#0" edges="653450175#0"/>
	<taz id="1238647413" edges="1238647413"/>
	<taz id="827477051" edges="827477051"/>
	<taz id="431593428#1" edges="431593428#1"/>
	<taz id="172365945#0" edges="172365945#0"/>
	<taz id="827083961#1" edges="827083961#1"/>
	<taz id="1213382698#1" edges="1213382698#1"/>
	<taz id="806165134#0" edges="806165134#0"/>
	<taz id="431593421#0" edges="431593421#0"/>
	<taz id="120209283#0" edges="120209283#0"/>
	<taz id="828996513#0" edges="828996513#0"/>
	<taz id="431593425#5" edges="431593425#5"/>
	<taz id="43990253" edges="43990253"/>
	<taz id="431593420#0" edges="431593420#0"/>
	<taz id="806165135" edges="806165135"/>
</tazs>
