<?xml version="1.0" encoding="UTF-8"?>

<!-- generated on 2025-03-11 19:04:36 by Eclipse SUMO od2trips Version 1.21.0
<od2tripsConfiguration xmlns:xsi="http://www.w3.org/2001/XMLSchema-instance" xsi:noNamespaceSchemaLocation="http://sumo.dlr.de/xsd/od2tripsConfiguration.xsd">

    <input>
        <taz-files value="../tonterias/tazes.taz.xml"/>
        <od-matrix-files value="../tonterias/matriz.od"/>
    </input>

    <output>
        <output-file value="./assets\traffic.trips.xml"/>
    </output>

</od2tripsConfiguration>
-->

<routes xmlns:xsi="http://www.w3.org/2001/XMLSchema-instance" xsi:noNamespaceSchemaLocation="http://sumo.dlr.de/xsd/routes_file.xsd">
    <trip id="30" depart="1.35" from="AD" to="IL" fromTaz="AD" toTaz="IL" departLane="free" departSpeed="max"/>
    <trip id="12" depart="2.95" from="AD" to="IL" fromTaz="AD" toTaz="IL" departLane="free" departSpeed="max"/>
    <trip id="17" depart="4.05" from="AD" to="IL" fromTaz="AD" toTaz="IL" departLane="free" departSpeed="max"/>
    <trip id="42" depart="5.40" from="AD" to="IL" fromTaz="AD" toTaz="IL" departLane="free" departSpeed="max"/>
    <trip id="28" depart="7.20" from="AD" to="IL" fromTaz="AD" toTaz="IL" departLane="free" departSpeed="max"/>
    <trip id="46" depart="7.38" from="AD" to="IL" fromTaz="AD" toTaz="IL" departLane="free" departSpeed="max"/>
    <trip id="8" depart="8.27" from="AD" to="IL" fromTaz="AD" toTaz="IL" departLane="free" departSpeed="max"/>
    <trip id="1" depart="9.51" from="AD" to="IL" fromTaz="AD" toTaz="IL" departLane="free" departSpeed="max"/>
    <trip id="26" depart="10.31" from="AD" to="IL" fromTaz="AD" toTaz="IL" departLane="free" departSpeed="max"/>
    <trip id="2" depart="10.32" from="AD" to="IL" fromTaz="AD" toTaz="IL" departLane="free" departSpeed="max"/>
    <trip id="41" depart="10.41" from="AD" to="IL" fromTaz="AD" toTaz="IL" departLane="free" departSpeed="max"/>
    <trip id="20" depart="11.32" from="AD" to="IL" fromTaz="AD" toTaz="IL" departLane="free" departSpeed="max"/>
    <trip id="21" depart="11.49" from="AD" to="IL" fromTaz="AD" toTaz="IL" departLane="free" departSpeed="max"/>
    <trip id="22" depart="13.02" from="AD" to="IL" fromTaz="AD" toTaz="IL" departLane="free" departSpeed="max"/>
    <trip id="18" depart="13.47" from="AD" to="IL" fromTaz="AD" toTaz="IL" departLane="free" departSpeed="max"/>
    <trip id="10" depart="13.56" from="AD" to="IL" fromTaz="AD" toTaz="IL" departLane="free" departSpeed="max"/>
    <trip id="5" depart="15.39" from="AD" to="IL" fromTaz="AD" toTaz="IL" departLane="free" departSpeed="max"/>
    <trip id="13" depart="16.83" from="AD" to="IL" fromTaz="AD" toTaz="IL" departLane="free" departSpeed="max"/>
    <trip id="16" depart="17.63" from="AD" to="IL" fromTaz="AD" toTaz="IL" departLane="free" departSpeed="max"/>
    <trip id="27" depart="18.01" from="AD" to="IL" fromTaz="AD" toTaz="IL" departLane="free" departSpeed="max"/>
    <trip id="34" depart="18.07" from="AD" to="IL" fromTaz="AD" toTaz="IL" departLane="free" departSpeed="max"/>
    <trip id="29" depart="18.13" from="AD" to="IL" fromTaz="AD" toTaz="IL" departLane="free" departSpeed="max"/>
    <trip id="4" depart="18.88" from="AD" to="IL" fromTaz="AD" toTaz="IL" departLane="free" departSpeed="max"/>
    <trip id="15" depart="19.06" from="AD" to="IL" fromTaz="AD" toTaz="IL" departLane="free" departSpeed="max"/>
    <trip id="43" depart="20.63" from="AD" to="IL" fromTaz="AD" toTaz="IL" departLane="free" departSpeed="max"/>
    <trip id="45" depart="22.97" from="AD" to="IL" fromTaz="AD" toTaz="IL" departLane="free" departSpeed="max"/>
    <trip id="32" depart="24.83" from="AD" to="IL" fromTaz="AD" toTaz="IL" departLane="free" departSpeed="max"/>
    <trip id="19" depart="31.95" from="AD" to="IL" fromTaz="AD" toTaz="IL" departLane="free" departSpeed="max"/>
    <trip id="9" depart="33.45" from="AD" to="IL" fromTaz="AD" toTaz="IL" departLane="free" departSpeed="max"/>
    <trip id="0" depart="35.35" from="AD" to="IL" fromTaz="AD" toTaz="IL" departLane="free" departSpeed="max"/>
    <trip id="23" depart="35.86" from="AD" to="IL" fromTaz="AD" toTaz="IL" departLane="free" departSpeed="max"/>
    <trip id="44" depart="35.98" from="AD" to="IL" fromTaz="AD" toTaz="IL" departLane="free" departSpeed="max"/>
    <trip id="47" depart="36.13" from="AD" to="IL" fromTaz="AD" toTaz="IL" departLane="free" departSpeed="max"/>
    <trip id="39" depart="36.17" from="AD" to="IL" fromTaz="AD" toTaz="IL" departLane="free" departSpeed="max"/>
    <trip id="31" depart="37.23" from="AD" to="IL" fromTaz="AD" toTaz="IL" departLane="free" departSpeed="max"/>
    <trip id="3" depart="38.16" from="AD" to="IL" fromTaz="AD" toTaz="IL" departLane="free" departSpeed="max"/>
    <trip id="33" depart="42.14" from="AD" to="IL" fromTaz="AD" toTaz="IL" departLane="free" departSpeed="max"/>
    <trip id="14" depart="43.38" from="AD" to="IL" fromTaz="AD" toTaz="IL" departLane="free" departSpeed="max"/>
    <trip id="48" depart="43.64" from="AD" to="IL" fromTaz="AD" toTaz="IL" departLane="free" departSpeed="max"/>
    <trip id="38" depart="48.66" from="AD" to="IL" fromTaz="AD" toTaz="IL" departLane="free" departSpeed="max"/>
    <trip id="6" depart="50.04" from="AD" to="IL" fromTaz="AD" toTaz="IL" departLane="free" departSpeed="max"/>
    <trip id="37" depart="51.51" from="AD" to="IL" fromTaz="AD" toTaz="IL" departLane="free" departSpeed="max"/>
    <trip id="11" depart="52.36" from="AD" to="IL" fromTaz="AD" toTaz="IL" departLane="free" departSpeed="max"/>
    <trip id="49" depart="52.60" from="AD" to="IL" fromTaz="AD" toTaz="IL" departLane="free" departSpeed="max"/>
    <trip id="24" depart="55.48" from="AD" to="IL" fromTaz="AD" toTaz="IL" departLane="free" departSpeed="max"/>
    <trip id="40" depart="55.80" from="AD" to="IL" fromTaz="AD" toTaz="IL" departLane="free" departSpeed="max"/>
    <trip id="7" depart="56.85" from="AD" to="IL" fromTaz="AD" toTaz="IL" departLane="free" departSpeed="max"/>
    <trip id="36" depart="57.03" from="AD" to="IL" fromTaz="AD" toTaz="IL" departLane="free" departSpeed="max"/>
    <trip id="25" depart="58.34" from="AD" to="IL" fromTaz="AD" toTaz="IL" departLane="free" departSpeed="max"/>
    <trip id="35" depart="58.99" from="AD" to="IL" fromTaz="AD" toTaz="IL" departLane="free" departSpeed="max"/>
</routes>
