<?xml version="1.0" encoding="UTF-8"?>

<!-- generated on 2025-05-12 15:57:48 by Eclipse SUMO od2trips Version 1.22.0
<od2tripsConfiguration xmlns:xsi="http://www.w3.org/2001/XMLSchema-instance" xsi:noNamespaceSchemaLocation="http://sumo.dlr.de/xsd/od2tripsConfiguration.xsd">

    <input>
        <taz-files value="./assets\tazes.taz.xml"/>
        <od-matrix-files value="./assets\matriz.od"/>
    </input>

    <output>
        <output-file value="./assets\traffic.trips.xml"/>
    </output>

</od2tripsConfiguration>
-->

<routes xmlns:xsi="http://www.w3.org/2001/XMLSchema-instance" xsi:noNamespaceSchemaLocation="http://sumo.dlr.de/xsd/routes_file.xsd">
    <trip id="5509" depart="0.02" from="431593428#1" to="43990253" fromTaz="431593428#1" toTaz="43990253" departLane="free" departSpeed="max"/>
    <trip id="2756" depart="0.12" from="298742305#4" to="431593420#0" fromTaz="298742305#4" toTaz="431593420#0" departLane="free" departSpeed="max"/>
    <trip id="7698" depart="0.42" from="498920722#1" to="43990253" fromTaz="498920722#1" toTaz="43990253" departLane="free" departSpeed="max"/>
    <trip id="4589" depart="0.91" from="431593428#1" to="431593420#0" fromTaz="431593428#1" toTaz="431593420#0" departLane="free" departSpeed="max"/>
    <trip id="7115" depart="0.94" from="498920722#1" to="431593420#0" fromTaz="498920722#1" toTaz="431593420#0" departLane="free" departSpeed="max"/>
    <trip id="137" depart="1.83" from="113540625#2" to="1213382698#1" fromTaz="113540625#2" toTaz="1213382698#1" departLane="free" departSpeed="max"/>
    <trip id="8579" depart="2.39" from="82685235#5" to="431593420#0" fromTaz="82685235#5" toTaz="431593420#0" departLane="free" departSpeed="max"/>
    <trip id="4345" depart="2.54" from="431593428#1" to="431593420#0" fromTaz="431593428#1" toTaz="431593420#0" departLane="free" departSpeed="max"/>
    <trip id="6325" depart="2.79" from="498920722#1" to="1213382698#1" fromTaz="498920722#1" toTaz="1213382698#1" departLane="free" departSpeed="max"/>
    <trip id="5428" depart="2.84" from="431593428#1" to="43990253" fromTaz="431593428#1" toTaz="43990253" departLane="free" departSpeed="max"/>
    <trip id="7118" depart="2.85" from="498920722#1" to="431593420#0" fromTaz="498920722#1" toTaz="431593420#0" departLane="free" departSpeed="max"/>
    <trip id="8554" depart="2.86" from="82685235#5" to="431593420#0" fromTaz="82685235#5" toTaz="431593420#0" departLane="free" departSpeed="max"/>
    <trip id="1108" depart="2.92" from="1238647413" to="1213382698#1" fromTaz="1238647413" toTaz="1213382698#1" departLane="free" departSpeed="max"/>
    <trip id="8326" depart="3.22" from="653450175#0" to="431593421#0" fromTaz="653450175#0" toTaz="431593421#0" departLane="free" departSpeed="max"/>
    <trip id="2541" depart="3.46" from="298742305#4" to="1213382698#1" fromTaz="298742305#4" toTaz="1213382698#1" departLane="free" departSpeed="max"/>
    <trip id="8303" depart="3.61" from="653450175#0" to="431593420#0" fromTaz="653450175#0" toTaz="431593420#0" departLane="free" departSpeed="max"/>
    <trip id="4371" depart="3.62" from="431593428#1" to="431593420#0" fromTaz="431593428#1" toTaz="431593420#0" departLane="free" departSpeed="max"/>
    <trip id="3919" depart="3.68" from="431593428#1" to="1213382698#1" fromTaz="431593428#1" toTaz="1213382698#1" departLane="free" departSpeed="max"/>
    <trip id="80" depart="3.84" from="113540625#2" to="1213382698#1" fromTaz="113540625#2" toTaz="1213382698#1" departLane="free" departSpeed="max"/>
    <trip id="8639" depart="4.11" from="82685235#5" to="431593420#0" fromTaz="82685235#5" toTaz="431593420#0" departLane="free" departSpeed="max"/>
    <trip id="4379" depart="4.55" from="431593428#1" to="431593420#0" fromTaz="431593428#1" toTaz="431593420#0" departLane="free" departSpeed="max"/>
    <trip id="4302" depart="5.03" from="431593428#1" to="431593420#0" fromTaz="431593428#1" toTaz="431593420#0" departLane="free" departSpeed="max"/>
    <trip id="781" depart="5.11" from="1238647413" to="1213382698#1" fromTaz="1238647413" toTaz="1213382698#1" departLane="free" departSpeed="max"/>
    <trip id="8184" depart="5.86" from="653450175#0" to="1213382698#1" fromTaz="653450175#0" toTaz="1213382698#1" departLane="free" departSpeed="max"/>
    <trip id="4519" depart="6.04" from="431593428#1" to="431593420#0" fromTaz="431593428#1" toTaz="431593420#0" departLane="free" departSpeed="max"/>
    <trip id="5969" depart="6.68" from="498920722#1" to="120209283#0" fromTaz="498920722#1" toTaz="120209283#0" departLane="free" departSpeed="max"/>
    <trip id="900" depart="6.74" from="1238647413" to="1213382698#1" fromTaz="1238647413" toTaz="1213382698#1" departLane="free" departSpeed="max"/>
    <trip id="2533" depart="6.88" from="298742305#4" to="1213382698#1" fromTaz="298742305#4" toTaz="1213382698#1" departLane="free" departSpeed="max"/>
    <trip id="3049" depart="7.36" from="298742305#4" to="828996513#0" fromTaz="298742305#4" toTaz="828996513#0" departLane="free" departSpeed="max"/>
    <trip id="43" depart="7.38" from="113540625#2" to="1213382698#1" fromTaz="113540625#2" toTaz="1213382698#1" departLane="free" departSpeed="max"/>
    <trip id="5460" depart="7.63" from="431593428#1" to="43990253" fromTaz="431593428#1" toTaz="43990253" departLane="free" departSpeed="max"/>
    <trip id="8663" depart="7.73" from="82685235#5" to="431593420#0" fromTaz="82685235#5" toTaz="431593420#0" departLane="free" departSpeed="max"/>
    <trip id="3743" depart="7.99" from="431593428#1" to="1213382698#1" fromTaz="431593428#1" toTaz="1213382698#1" departLane="free" departSpeed="max"/>
    <trip id="6789" depart="8.41" from="498920722#1" to="172365945#0" fromTaz="498920722#1" toTaz="172365945#0" departLane="free" departSpeed="max"/>
    <trip id="4052" depart="8.54" from="431593428#1" to="1213382698#1" fromTaz="431593428#1" toTaz="1213382698#1" departLane="free" departSpeed="max"/>
    <trip id="327" depart="8.55" from="113540625#2" to="431593425#5" fromTaz="113540625#2" toTaz="431593425#5" departLane="free" departSpeed="max"/>
    <trip id="539" depart="8.91" from="119409677#4" to="431593420#0" fromTaz="119409677#4" toTaz="431593420#0" departLane="free" departSpeed="max"/>
    <trip id="5747" depart="8.97" from="431593428#1" to="806165134#0" fromTaz="431593428#1" toTaz="806165134#0" departLane="free" departSpeed="max"/>
    <trip id="3605" depart="9.29" from="431593428#1" to="1213382698#1" fromTaz="431593428#1" toTaz="1213382698#1" departLane="free" departSpeed="max"/>
    <trip id="2096" depart="9.29" from="1238647413" to="43990253" fromTaz="1238647413" toTaz="43990253" departLane="free" departSpeed="max"/>
    <trip id="1834" depart="9.34" from="1238647413" to="431593420#0" fromTaz="1238647413" toTaz="431593420#0" departLane="free" departSpeed="max"/>
    <trip id="8199" depart="9.38" from="653450175#0" to="1213382698#1" fromTaz="653450175#0" toTaz="1213382698#1" departLane="free" departSpeed="max"/>
    <trip id="7085" depart="9.39" from="498920722#1" to="431593420#0" fromTaz="498920722#1" toTaz="431593420#0" departLane="free" departSpeed="max"/>
    <trip id="5145" depart="9.48" from="431593428#1" to="431593421#0" fromTaz="431593428#1" toTaz="431593421#0" departLane="free" departSpeed="max"/>
    <trip id="3004" depart="11.00" from="298742305#4" to="43990253" fromTaz="298742305#4" toTaz="43990253" departLane="free" departSpeed="max"/>
    <trip id="7235" depart="11.11" from="498920722#1" to="431593420#0" fromTaz="498920722#1" toTaz="431593420#0" departLane="free" departSpeed="max"/>
    <trip id="2638" depart="11.33" from="298742305#4" to="1213382698#1" fromTaz="298742305#4" toTaz="1213382698#1" departLane="free" departSpeed="max"/>
    <trip id="6506" depart="11.86" from="498920722#1" to="1213382698#1" fromTaz="498920722#1" toTaz="1213382698#1" departLane="free" departSpeed="max"/>
    <trip id="3401" depart="12.02" from="431593428#1" to="1213382698#1" fromTaz="431593428#1" toTaz="1213382698#1" departLane="free" departSpeed="max"/>
    <trip id="7874" depart="12.76" from="498920722#1" to="43990253" fromTaz="498920722#1" toTaz="43990253" departLane="free" departSpeed="max"/>
    <trip id="2133" depart="12.84" from="1238647413" to="43990253" fromTaz="1238647413" toTaz="43990253" departLane="free" departSpeed="max"/>
    <trip id="165" depart="13.05" from="113540625#2" to="172365945#0" fromTaz="113540625#2" toTaz="172365945#0" departLane="free" departSpeed="max"/>
    <trip id="4706" depart="14.05" from="431593428#1" to="431593420#0" fromTaz="431593428#1" toTaz="431593420#0" departLane="free" departSpeed="max"/>
    <trip id="1573" depart="14.07" from="1238647413" to="431593420#0" fromTaz="1238647413" toTaz="431593420#0" departLane="free" departSpeed="max"/>
    <trip id="3359" depart="14.64" from="431593428#1" to="1213382698#1" fromTaz="431593428#1" toTaz="1213382698#1" departLane="free" departSpeed="max"/>
    <trip id="1995" depart="14.71" from="1238647413" to="43990253" fromTaz="1238647413" toTaz="43990253" departLane="free" departSpeed="max"/>
    <trip id="4068" depart="14.89" from="431593428#1" to="1213382698#1" fromTaz="431593428#1" toTaz="1213382698#1" departLane="free" departSpeed="max"/>
    <trip id="1319" depart="14.93" from="1238647413" to="172365945#0" fromTaz="1238647413" toTaz="172365945#0" departLane="free" departSpeed="max"/>
    <trip id="3353" depart="14.94" from="431593428#1" to="1213382698#1" fromTaz="431593428#1" toTaz="1213382698#1" departLane="free" departSpeed="max"/>
    <trip id="4325" depart="14.99" from="431593428#1" to="431593420#0" fromTaz="431593428#1" toTaz="431593420#0" departLane="free" departSpeed="max"/>
    <trip id="6067" depart="15.04" from="498920722#1" to="120209283#0" fromTaz="498920722#1" toTaz="120209283#0" departLane="free" departSpeed="max"/>
    <trip id="8288" depart="15.50" from="653450175#0" to="431593420#0" fromTaz="653450175#0" toTaz="431593420#0" departLane="free" departSpeed="max"/>
    <trip id="3576" depart="15.55" from="431593428#1" to="1213382698#1" fromTaz="431593428#1" toTaz="1213382698#1" departLane="free" departSpeed="max"/>
    <trip id="4800" depart="15.70" from="431593428#1" to="431593420#0" fromTaz="431593428#1" toTaz="431593420#0" departLane="free" departSpeed="max"/>
    <trip id="6849" depart="15.74" from="498920722#1" to="431593420#0" fromTaz="498920722#1" toTaz="431593420#0" departLane="free" departSpeed="max"/>
    <trip id="5644" depart="15.87" from="431593428#1" to="43990253" fromTaz="431593428#1" toTaz="43990253" departLane="free" departSpeed="max"/>
    <trip id="2537" depart="15.90" from="298742305#4" to="1213382698#1" fromTaz="298742305#4" toTaz="1213382698#1" departLane="free" departSpeed="max"/>
    <trip id="7624" depart="16.70" from="498920722#1" to="431593425#5" fromTaz="498920722#1" toTaz="431593425#5" departLane="free" departSpeed="max"/>
    <trip id="6089" depart="16.80" from="498920722#1" to="1213382698#1" fromTaz="498920722#1" toTaz="1213382698#1" departLane="free" departSpeed="max"/>
    <trip id="4575" depart="16.88" from="431593428#1" to="431593420#0" fromTaz="431593428#1" toTaz="431593420#0" departLane="free" departSpeed="max"/>
    <trip id="3942" depart="17.21" from="431593428#1" to="1213382698#1" fromTaz="431593428#1" toTaz="1213382698#1" departLane="free" departSpeed="max"/>
    <trip id="2606" depart="17.55" from="298742305#4" to="1213382698#1" fromTaz="298742305#4" toTaz="1213382698#1" departLane="free" departSpeed="max"/>
    <trip id="27" depart="18.13" from="113540625#2" to="1213382698#1" fromTaz="113540625#2" toTaz="1213382698#1" departLane="free" departSpeed="max"/>
    <trip id="3450" depart="18.86" from="431593428#1" to="1213382698#1" fromTaz="431593428#1" toTaz="1213382698#1" departLane="free" departSpeed="max"/>
    <trip id="4535" depart="18.94" from="431593428#1" to="431593420#0" fromTaz="431593428#1" toTaz="431593420#0" departLane="free" departSpeed="max"/>
    <trip id="6860" depart="18.95" from="498920722#1" to="431593420#0" fromTaz="498920722#1" toTaz="431593420#0" departLane="free" departSpeed="max"/>
    <trip id="745" depart="18.97" from="1238647413" to="120209283#0" fromTaz="1238647413" toTaz="120209283#0" departLane="free" departSpeed="max"/>
    <trip id="409" depart="19.61" from="113540625#2" to="827083961#1" fromTaz="113540625#2" toTaz="827083961#1" departLane="free" departSpeed="max"/>
    <trip id="2510" depart="19.73" from="298742305#4" to="1213382698#1" fromTaz="298742305#4" toTaz="1213382698#1" departLane="free" departSpeed="max"/>
    <trip id="5750" depart="19.73" from="431593428#1" to="806165134#0" fromTaz="431593428#1" toTaz="806165134#0" departLane="free" departSpeed="max"/>
    <trip id="8064" depart="19.82" from="498920722#1" to="827083961#1" fromTaz="498920722#1" toTaz="827083961#1" departLane="free" departSpeed="max"/>
    <trip id="8160" depart="19.83" from="653450175#0" to="120209283#0" fromTaz="653450175#0" toTaz="120209283#0" departLane="free" departSpeed="max"/>
    <trip id="4630" depart="21.21" from="431593428#1" to="431593420#0" fromTaz="431593428#1" toTaz="431593420#0" departLane="free" departSpeed="max"/>
    <trip id="4234" depart="21.26" from="431593428#1" to="431593420#0" fromTaz="431593428#1" toTaz="431593420#0" departLane="free" departSpeed="max"/>
    <trip id="2059" depart="21.26" from="1238647413" to="43990253" fromTaz="1238647413" toTaz="43990253" departLane="free" departSpeed="max"/>
    <trip id="2791" depart="21.41" from="298742305#4" to="431593420#0" fromTaz="298742305#4" toTaz="431593420#0" departLane="free" departSpeed="max"/>
    <trip id="7957" depart="21.49" from="498920722#1" to="43990253" fromTaz="498920722#1" toTaz="43990253" departLane="free" departSpeed="max"/>
    <trip id="6824" depart="21.77" from="498920722#1" to="431593420#0" fromTaz="498920722#1" toTaz="431593420#0" departLane="free" departSpeed="max"/>
    <trip id="8667" depart="22.30" from="82685235#5" to="431593420#0" fromTaz="82685235#5" toTaz="431593420#0" departLane="free" departSpeed="max"/>
    <trip id="2126" depart="22.64" from="1238647413" to="43990253" fromTaz="1238647413" toTaz="43990253" departLane="free" departSpeed="max"/>
    <trip id="8048" depart="22.68" from="498920722#1" to="827083961#1" fromTaz="498920722#1" toTaz="827083961#1" departLane="free" departSpeed="max"/>
    <trip id="3029" depart="22.69" from="298742305#4" to="806165134#0" fromTaz="298742305#4" toTaz="806165134#0" departLane="free" departSpeed="max"/>
    <trip id="1389" depart="22.82" from="1238647413" to="431593420#0" fromTaz="1238647413" toTaz="431593420#0" departLane="free" departSpeed="max"/>
    <trip id="7626" depart="23.02" from="498920722#1" to="431593425#5" fromTaz="498920722#1" toTaz="431593425#5" departLane="free" departSpeed="max"/>
    <trip id="2693" depart="23.34" from="298742305#4" to="431593420#0" fromTaz="298742305#4" toTaz="431593420#0" departLane="free" departSpeed="max"/>
    <trip id="8398" depart="23.34" from="82685235#5" to="120209283#0" fromTaz="82685235#5" toTaz="120209283#0" departLane="free" departSpeed="max"/>
    <trip id="4279" depart="23.87" from="431593428#1" to="431593420#0" fromTaz="431593428#1" toTaz="431593420#0" departLane="free" departSpeed="max"/>
    <trip id="1139" depart="23.89" from="1238647413" to="1213382698#1" fromTaz="1238647413" toTaz="1213382698#1" departLane="free" departSpeed="max"/>
    <trip id="6642" depart="23.94" from="498920722#1" to="1213382698#1" fromTaz="498920722#1" toTaz="1213382698#1" departLane="free" departSpeed="max"/>
    <trip id="7684" depart="23.96" from="498920722#1" to="431593425#5" fromTaz="498920722#1" toTaz="431593425#5" departLane="free" departSpeed="max"/>
    <trip id="1654" depart="24.00" from="1238647413" to="431593420#0" fromTaz="1238647413" toTaz="431593420#0" departLane="free" departSpeed="max"/>
    <trip id="3383" depart="24.04" from="431593428#1" to="1213382698#1" fromTaz="431593428#1" toTaz="1213382698#1" departLane="free" departSpeed="max"/>
    <trip id="5447" depart="24.04" from="431593428#1" to="43990253" fromTaz="431593428#1" toTaz="43990253" departLane="free" departSpeed="max"/>
    <trip id="6887" depart="24.09" from="498920722#1" to="431593420#0" fromTaz="498920722#1" toTaz="431593420#0" departLane="free" departSpeed="max"/>
    <trip id="5896" depart="24.14" from="431593428#1" to="828996513#0" fromTaz="431593428#1" toTaz="828996513#0" departLane="free" departSpeed="max"/>
    <trip id="7006" depart="24.19" from="498920722#1" to="431593420#0" fromTaz="498920722#1" toTaz="431593420#0" departLane="free" departSpeed="max"/>
    <trip id="3861" depart="24.45" from="431593428#1" to="1213382698#1" fromTaz="431593428#1" toTaz="1213382698#1" departLane="free" departSpeed="max"/>
    <trip id="4933" depart="24.67" from="431593428#1" to="431593420#0" fromTaz="431593428#1" toTaz="431593420#0" departLane="free" departSpeed="max"/>
    <trip id="8717" depart="24.76" from="82685235#5" to="43990253" fromTaz="82685235#5" toTaz="43990253" departLane="free" departSpeed="max"/>
    <trip id="1713" depart="24.89" from="1238647413" to="431593420#0" fromTaz="1238647413" toTaz="431593420#0" departLane="free" departSpeed="max"/>
    <trip id="3287" depart="25.12" from="431593428#1" to="1213382698#1" fromTaz="431593428#1" toTaz="1213382698#1" departLane="free" departSpeed="max"/>
    <trip id="1950" depart="25.12" from="1238647413" to="431593425#5" fromTaz="1238647413" toTaz="431593425#5" departLane="free" departSpeed="max"/>
    <trip id="5905" depart="25.14" from="431593428#1" to="828996513#0" fromTaz="431593428#1" toTaz="828996513#0" departLane="free" departSpeed="max"/>
    <trip id="6844" depart="25.34" from="498920722#1" to="431593420#0" fromTaz="498920722#1" toTaz="431593420#0" departLane="free" departSpeed="max"/>
    <trip id="7283" depart="25.54" from="498920722#1" to="431593420#0" fromTaz="498920722#1" toTaz="431593420#0" departLane="free" departSpeed="max"/>
    <trip id="19" depart="25.67" from="113540625#2" to="120209283#0" fromTaz="113540625#2" toTaz="120209283#0" departLane="free" departSpeed="max"/>
    <trip id="3621" depart="25.74" from="431593428#1" to="1213382698#1" fromTaz="431593428#1" toTaz="1213382698#1" departLane="free" departSpeed="max"/>
    <trip id="1765" depart="25.86" from="1238647413" to="431593420#0" fromTaz="1238647413" toTaz="431593420#0" departLane="free" departSpeed="max"/>
    <trip id="5189" depart="26.31" from="431593428#1" to="431593425#5" fromTaz="431593428#1" toTaz="431593425#5" departLane="free" departSpeed="max"/>
    <trip id="3694" depart="26.31" from="431593428#1" to="1213382698#1" fromTaz="431593428#1" toTaz="1213382698#1" departLane="free" departSpeed="max"/>
    <trip id="6373" depart="26.39" from="498920722#1" to="1213382698#1" fromTaz="498920722#1" toTaz="1213382698#1" departLane="free" departSpeed="max"/>
    <trip id="1445" depart="26.53" from="1238647413" to="431593420#0" fromTaz="1238647413" toTaz="431593420#0" departLane="free" departSpeed="max"/>
    <trip id="7796" depart="27.06" from="498920722#1" to="43990253" fromTaz="498920722#1" toTaz="43990253" departLane="free" departSpeed="max"/>
    <trip id="57" depart="27.48" from="113540625#2" to="1213382698#1" fromTaz="113540625#2" toTaz="1213382698#1" departLane="free" departSpeed="max"/>
    <trip id="2829" depart="27.65" from="298742305#4" to="431593420#0" fromTaz="298742305#4" toTaz="431593420#0" departLane="free" departSpeed="max"/>
    <trip id="8440" depart="27.67" from="82685235#5" to="1213382698#1" fromTaz="82685235#5" toTaz="1213382698#1" departLane="free" departSpeed="max"/>
    <trip id="8665" depart="27.79" from="82685235#5" to="431593420#0" fromTaz="82685235#5" toTaz="431593420#0" departLane="free" departSpeed="max"/>
    <trip id="7690" depart="28.23" from="498920722#1" to="431593425#5" fromTaz="498920722#1" toTaz="431593425#5" departLane="free" departSpeed="max"/>
    <trip id="7248" depart="28.41" from="498920722#1" to="431593420#0" fromTaz="498920722#1" toTaz="431593420#0" departLane="free" departSpeed="max"/>
    <trip id="6787" depart="28.51" from="498920722#1" to="172365945#0" fromTaz="498920722#1" toTaz="172365945#0" departLane="free" departSpeed="max"/>
    <trip id="6910" depart="28.62" from="498920722#1" to="431593420#0" fromTaz="498920722#1" toTaz="431593420#0" departLane="free" departSpeed="max"/>
    <trip id="8042" depart="28.73" from="498920722#1" to="827083961#1" fromTaz="498920722#1" toTaz="827083961#1" departLane="free" departSpeed="max"/>
    <trip id="1298" depart="28.78" from="1238647413" to="172365945#0" fromTaz="1238647413" toTaz="172365945#0" departLane="free" departSpeed="max"/>
    <trip id="2091" depart="29.15" from="1238647413" to="43990253" fromTaz="1238647413" toTaz="43990253" departLane="free" departSpeed="max"/>
    <trip id="961" depart="29.15" from="1238647413" to="1213382698#1" fromTaz="1238647413" toTaz="1213382698#1" departLane="free" departSpeed="max"/>
    <trip id="5408" depart="29.39" from="431593428#1" to="43990253" fromTaz="431593428#1" toTaz="43990253" departLane="free" departSpeed="max"/>
    <trip id="6501" depart="30.07" from="498920722#1" to="1213382698#1" fromTaz="498920722#1" toTaz="1213382698#1" departLane="free" departSpeed="max"/>
    <trip id="8426" depart="30.12" from="82685235#5" to="1213382698#1" fromTaz="82685235#5" toTaz="1213382698#1" departLane="free" departSpeed="max"/>
    <trip id="5882" depart="30.26" from="431593428#1" to="828996513#0" fromTaz="431593428#1" toTaz="828996513#0" departLane="free" departSpeed="max"/>
    <trip id="1967" depart="30.26" from="1238647413" to="43990253" fromTaz="1238647413" toTaz="43990253" departLane="free" departSpeed="max"/>
    <trip id="7361" depart="30.29" from="498920722#1" to="431593420#0" fromTaz="498920722#1" toTaz="431593420#0" departLane="free" departSpeed="max"/>
    <trip id="6262" depart="30.32" from="498920722#1" to="1213382698#1" fromTaz="498920722#1" toTaz="1213382698#1" departLane="free" departSpeed="max"/>
    <trip id="4029" depart="31.16" from="431593428#1" to="1213382698#1" fromTaz="431593428#1" toTaz="1213382698#1" departLane="free" departSpeed="max"/>
    <trip id="6541" depart="31.39" from="498920722#1" to="1213382698#1" fromTaz="498920722#1" toTaz="1213382698#1" departLane="free" departSpeed="max"/>
    <trip id="1415" depart="31.70" from="1238647413" to="431593420#0" fromTaz="1238647413" toTaz="431593420#0" departLane="free" departSpeed="max"/>
    <trip id="1929" depart="31.80" from="1238647413" to="431593425#5" fromTaz="1238647413" toTaz="431593425#5" departLane="free" departSpeed="max"/>
    <trip id="6081" depart="31.82" from="498920722#1" to="1213382698#1" fromTaz="498920722#1" toTaz="1213382698#1" departLane="free" departSpeed="max"/>
    <trip id="8733" depart="32.68" from="82685235#5" to="43990253" fromTaz="82685235#5" toTaz="43990253" departLane="free" departSpeed="max"/>
    <trip id="2166" depart="32.93" from="1238647413" to="43990253" fromTaz="1238647413" toTaz="43990253" departLane="free" departSpeed="max"/>
    <trip id="8528" depart="33.57" from="82685235#5" to="1213382698#1" fromTaz="82685235#5" toTaz="1213382698#1" departLane="free" departSpeed="max"/>
    <trip id="6702" depart="33.78" from="498920722#1" to="1213382698#1" fromTaz="498920722#1" toTaz="1213382698#1" departLane="free" departSpeed="max"/>
    <trip id="1986" depart="33.79" from="1238647413" to="43990253" fromTaz="1238647413" toTaz="43990253" departLane="free" departSpeed="max"/>
    <trip id="7056" depart="34.01" from="498920722#1" to="431593420#0" fromTaz="498920722#1" toTaz="431593420#0" departLane="free" departSpeed="max"/>
    <trip id="1728" depart="35.18" from="1238647413" to="431593420#0" fromTaz="1238647413" toTaz="431593420#0" departLane="free" departSpeed="max"/>
    <trip id="4849" depart="35.81" from="431593428#1" to="431593420#0" fromTaz="431593428#1" toTaz="431593420#0" departLane="free" departSpeed="max"/>
    <trip id="731" depart="36.13" from="1238647413" to="120209283#0" fromTaz="1238647413" toTaz="120209283#0" departLane="free" departSpeed="max"/>
    <trip id="2995" depart="36.22" from="298742305#4" to="43990253" fromTaz="298742305#4" toTaz="43990253" departLane="free" departSpeed="max"/>
    <trip id="1282" depart="36.35" from="1238647413" to="1213382698#1" fromTaz="1238647413" toTaz="1213382698#1" departLane="free" departSpeed="max"/>
    <trip id="4340" depart="36.45" from="431593428#1" to="431593420#0" fromTaz="431593428#1" toTaz="431593420#0" departLane="free" departSpeed="max"/>
    <trip id="5559" depart="36.52" from="431593428#1" to="43990253" fromTaz="431593428#1" toTaz="43990253" departLane="free" departSpeed="max"/>
    <trip id="6127" depart="36.61" from="498920722#1" to="1213382698#1" fromTaz="498920722#1" toTaz="1213382698#1" departLane="free" departSpeed="max"/>
    <trip id="7618" depart="36.88" from="498920722#1" to="431593425#5" fromTaz="498920722#1" toTaz="431593425#5" departLane="free" departSpeed="max"/>
    <trip id="305" depart="37.11" from="113540625#2" to="431593420#0" fromTaz="113540625#2" toTaz="431593420#0" departLane="free" departSpeed="max"/>
    <trip id="2355" depart="37.22" from="132742473#8" to="1213382698#1" fromTaz="132742473#8" toTaz="1213382698#1" departLane="free" departSpeed="max"/>
    <trip id="1811" depart="37.26" from="1238647413" to="431593420#0" fromTaz="1238647413" toTaz="431593420#0" departLane="free" departSpeed="max"/>
    <trip id="1829" depart="37.39" from="1238647413" to="431593420#0" fromTaz="1238647413" toTaz="431593420#0" departLane="free" departSpeed="max"/>
    <trip id="7885" depart="37.47" from="498920722#1" to="43990253" fromTaz="498920722#1" toTaz="43990253" departLane="free" departSpeed="max"/>
    <trip id="2962" depart="37.59" from="298742305#4" to="43990253" fromTaz="298742305#4" toTaz="43990253" departLane="free" departSpeed="max"/>
    <trip id="1379" depart="37.71" from="1238647413" to="431593420#0" fromTaz="1238647413" toTaz="431593420#0" departLane="free" departSpeed="max"/>
    <trip id="6434" depart="37.71" from="498920722#1" to="1213382698#1" fromTaz="498920722#1" toTaz="1213382698#1" departLane="free" departSpeed="max"/>
    <trip id="2246" depart="37.97" from="1238647413" to="828996513#0" fromTaz="1238647413" toTaz="828996513#0" departLane="free" departSpeed="max"/>
    <trip id="7748" depart="38.02" from="498920722#1" to="43990253" fromTaz="498920722#1" toTaz="43990253" departLane="free" departSpeed="max"/>
    <trip id="4941" depart="38.16" from="431593428#1" to="431593420#0" fromTaz="431593428#1" toTaz="431593420#0" departLane="free" departSpeed="max"/>
    <trip id="7277" depart="38.43" from="498920722#1" to="431593420#0" fromTaz="498920722#1" toTaz="431593420#0" departLane="free" departSpeed="max"/>
    <trip id="8498" depart="38.55" from="82685235#5" to="1213382698#1" fromTaz="82685235#5" toTaz="1213382698#1" departLane="free" departSpeed="max"/>
    <trip id="7286" depart="38.61" from="498920722#1" to="431593420#0" fromTaz="498920722#1" toTaz="431593420#0" departLane="free" departSpeed="max"/>
    <trip id="1876" depart="38.67" from="1238647413" to="431593421#0" fromTaz="1238647413" toTaz="431593421#0" departLane="free" departSpeed="max"/>
    <trip id="4333" depart="38.76" from="431593428#1" to="431593420#0" fromTaz="431593428#1" toTaz="431593420#0" departLane="free" departSpeed="max"/>
    <trip id="4966" depart="39.00" from="431593428#1" to="431593420#0" fromTaz="431593428#1" toTaz="431593420#0" departLane="free" departSpeed="max"/>
    <trip id="221" depart="39.30" from="113540625#2" to="431593420#0" fromTaz="113540625#2" toTaz="431593420#0" departLane="free" departSpeed="max"/>
    <trip id="1744" depart="39.36" from="1238647413" to="431593420#0" fromTaz="1238647413" toTaz="431593420#0" departLane="free" departSpeed="max"/>
    <trip id="279" depart="39.43" from="113540625#2" to="431593420#0" fromTaz="113540625#2" toTaz="431593420#0" departLane="free" departSpeed="max"/>
    <trip id="3259" depart="39.62" from="431593428#1" to="1213382698#1" fromTaz="431593428#1" toTaz="1213382698#1" departLane="free" departSpeed="max"/>
    <trip id="2722" depart="39.63" from="298742305#4" to="431593420#0" fromTaz="298742305#4" toTaz="431593420#0" departLane="free" departSpeed="max"/>
    <trip id="3131" depart="39.66" from="431593428#1" to="120209283#0" fromTaz="431593428#1" toTaz="120209283#0" departLane="free" departSpeed="max"/>
    <trip id="5448" depart="40.47" from="431593428#1" to="43990253" fromTaz="431593428#1" toTaz="43990253" departLane="free" departSpeed="max"/>
    <trip id="7155" depart="40.52" from="498920722#1" to="431593420#0" fromTaz="498920722#1" toTaz="431593420#0" departLane="free" departSpeed="max"/>
    <trip id="7327" depart="40.88" from="498920722#1" to="431593420#0" fromTaz="498920722#1" toTaz="431593420#0" departLane="free" departSpeed="max"/>
    <trip id="6077" depart="40.91" from="498920722#1" to="120209283#0" fromTaz="498920722#1" toTaz="120209283#0" departLane="free" departSpeed="max"/>
    <trip id="4106" depart="41.07" from="431593428#1" to="1213382698#1" fromTaz="431593428#1" toTaz="1213382698#1" departLane="free" departSpeed="max"/>
    <trip id="7913" depart="41.14" from="498920722#1" to="43990253" fromTaz="498920722#1" toTaz="43990253" departLane="free" departSpeed="max"/>
    <trip id="6119" depart="41.21" from="498920722#1" to="1213382698#1" fromTaz="498920722#1" toTaz="1213382698#1" departLane="free" departSpeed="max"/>
    <trip id="3800" depart="41.36" from="431593428#1" to="1213382698#1" fromTaz="431593428#1" toTaz="1213382698#1" departLane="free" departSpeed="max"/>
    <trip id="41" depart="41.55" from="113540625#2" to="1213382698#1" fromTaz="113540625#2" toTaz="1213382698#1" departLane="free" departSpeed="max"/>
    <trip id="364" depart="41.59" from="113540625#2" to="43990253" fromTaz="113540625#2" toTaz="43990253" departLane="free" departSpeed="max"/>