<?xml version="1.0" encoding="UTF-8"?>

<!-- generated on 2025-03-30 19:05:01 by Eclipse SUMO od2trips Version 1.21.0
<od2tripsConfiguration xmlns:xsi="http://www.w3.org/2001/XMLSchema-instance" xsi:noNamespaceSchemaLocation="http://sumo.dlr.de/xsd/od2tripsConfiguration.xsd">

    <input>
        <taz-files value="./assets\tazes.taz.xml"/>
        <od-matrix-files value="./assets\matriz.od"/>
    </input>

    <output>
        <output-file value="./assets\traffic.trips.xml"/>
    </output>

</od2tripsConfiguration>
-->

<routes xmlns:xsi="http://www.w3.org/2001/XMLSchema-instance" xsi:noNamespaceSchemaLocation="http://sumo.dlr.de/xsd/routes_file.xsd">
    <trip id="72" depart="0.56" from="IL" to="AD" fromTaz="IL" toTaz="AD" departLane="free" departSpeed="max"/>
    <trip id="30" depart="1.35" from="AD" to="IL" fromTaz="AD" toTaz="IL" departLane="free" departSpeed="max"/>
    <trip id="89" depart="1.75" from="IL" to="IL" fromTaz="IL" toTaz="IL" departLane="free" departSpeed="max"/>
    <trip id="85" depart="2.44" from="IL" to="IL" fromTaz="IL" toTaz="IL" departLane="free" departSpeed="max"/>
    <trip id="12" depart="2.95" from="AD" to="AD" fromTaz="AD" toTaz="AD" departLane="free" departSpeed="max"/>
    <trip id="17" depart="4.05" from="AD" to="AD" fromTaz="AD" toTaz="AD" departLane="free" departSpeed="max"/>
    <trip id="55" depart="4.46" from="IL" to="AD" fromTaz="IL" toTaz="AD" departLane="free" departSpeed="max"/>
    <trip id="95" depart="4.74" from="IL" to="IL" fromTaz="IL" toTaz="IL" departLane="free" departSpeed="max"/>
    <trip id="27" depart="4.76" from="AD" to="IL" fromTaz="AD" toTaz="IL" departLane="free" departSpeed="max"/>
    <trip id="62" depart="5.06" from="IL" to="AD" fromTaz="IL" toTaz="AD" departLane="free" departSpeed="max"/>
    <trip id="42" depart="5.40" from="AD" to="IL" fromTaz="AD" toTaz="IL" departLane="free" departSpeed="max"/>
    <trip id="54" depart="6.76" from="IL" to="AD" fromTaz="IL" toTaz="AD" departLane="free" departSpeed="max"/>
    <trip id="28" depart="7.20" from="AD" to="IL" fromTaz="AD" toTaz="IL" departLane="free" departSpeed="max"/>
    <trip id="46" depart="7.38" from="AD" to="IL" fromTaz="AD" toTaz="IL" departLane="free" departSpeed="max"/>
    <trip id="52" depart="8.13" from="IL" to="AD" fromTaz="IL" toTaz="AD" departLane="free" departSpeed="max"/>
    <trip id="8" depart="8.27" from="AD" to="AD" fromTaz="AD" toTaz="AD" departLane="free" departSpeed="max"/>
    <trip id="1" depart="9.51" from="AD" to="AD" fromTaz="AD" toTaz="AD" departLane="free" departSpeed="max"/>
    <trip id="75" depart="9.82" from="IL" to="IL" fromTaz="IL" toTaz="IL" departLane="free" departSpeed="max"/>
    <trip id="2" depart="10.32" from="AD" to="AD" fromTaz="AD" toTaz="AD" departLane="free" departSpeed="max"/>
    <trip id="41" depart="10.41" from="AD" to="IL" fromTaz="AD" toTaz="IL" departLane="free" departSpeed="max"/>
    <trip id="70" depart="10.94" from="IL" to="AD" fromTaz="IL" toTaz="AD" departLane="free" departSpeed="max"/>
    <trip id="20" depart="11.32" from="AD" to="AD" fromTaz="AD" toTaz="AD" departLane="free" departSpeed="max"/>
    <trip id="21" depart="11.49" from="AD" to="AD" fromTaz="AD" toTaz="AD" departLane="free" departSpeed="max"/>
    <trip id="26" depart="12.79" from="AD" to="IL" fromTaz="AD" toTaz="IL" departLane="free" departSpeed="max"/>
    <trip id="22" depart="13.02" from="AD" to="AD" fromTaz="AD" toTaz="AD" departLane="free" departSpeed="max"/>
    <trip id="18" depart="13.47" from="AD" to="AD" fromTaz="AD" toTaz="AD" departLane="free" departSpeed="max"/>
    <trip id="10" depart="13.56" from="AD" to="AD" fromTaz="AD" toTaz="AD" departLane="free" departSpeed="max"/>
    <trip id="84" depart="14.19" from="IL" to="IL" fromTaz="IL" toTaz="IL" departLane="free" departSpeed="max"/>
    <trip id="63" depart="14.73" from="IL" to="AD" fromTaz="IL" toTaz="AD" departLane="free" departSpeed="max"/>
    <trip id="90" depart="15.04" from="IL" to="IL" fromTaz="IL" toTaz="IL" departLane="free" departSpeed="max"/>
    <trip id="5" depart="15.39" from="AD" to="AD" fromTaz="AD" toTaz="AD" departLane="free" departSpeed="max"/>
    <trip id="79" depart="15.97" from="IL" to="IL" fromTaz="IL" toTaz="IL" departLane="free" departSpeed="max"/>
    <trip id="88" depart="16.72" from="IL" to="IL" fromTaz="IL" toTaz="IL" departLane="free" departSpeed="max"/>
    <trip id="13" depart="16.83" from="AD" to="AD" fromTaz="AD" toTaz="AD" departLane="free" departSpeed="max"/>
    <trip id="64" depart="17.29" from="IL" to="AD" fromTaz="IL" toTaz="AD" departLane="free" departSpeed="max"/>
    <trip id="16" depart="17.63" from="AD" to="AD" fromTaz="AD" toTaz="AD" departLane="free" departSpeed="max"/>
    <trip id="67" depart="17.77" from="IL" to="AD" fromTaz="IL" toTaz="AD" departLane="free" departSpeed="max"/>
    <trip id="34" depart="18.07" from="AD" to="IL" fromTaz="AD" toTaz="IL" departLane="free" departSpeed="max"/>
    <trip id="29" depart="18.13" from="AD" to="IL" fromTaz="AD" toTaz="IL" departLane="free" departSpeed="max"/>
    <trip id="57" depart="18.62" from="IL" to="AD" fromTaz="IL" toTaz="AD" departLane="free" departSpeed="max"/>
    <trip id="73" depart="18.68" from="IL" to="AD" fromTaz="IL" toTaz="AD" departLane="free" departSpeed="max"/>
    <trip id="4" depart="18.88" from="AD" to="AD" fromTaz="AD" toTaz="AD" departLane="free" departSpeed="max"/>
    <trip id="15" depart="19.06" from="AD" to="AD" fromTaz="AD" toTaz="AD" departLane="free" departSpeed="max"/>
    <trip id="43" depart="20.63" from="AD" to="IL" fromTaz="AD" toTaz="IL" departLane="free" departSpeed="max"/>
    <trip id="96" depart="21.68" from="IL" to="IL" fromTaz="IL" toTaz="IL" departLane="free" departSpeed="max"/>
    <trip id="45" depart="22.97" from="AD" to="IL" fromTaz="AD" toTaz="IL" departLane="free" departSpeed="max"/>
    <trip id="97" depart="23.02" from="IL" to="IL" fromTaz="IL" toTaz="IL" departLane="free" departSpeed="max"/>
    <trip id="60" depart="24.58" from="IL" to="AD" fromTaz="IL" toTaz="AD" departLane="free" departSpeed="max"/>
    <trip id="32" depart="24.83" from="AD" to="IL" fromTaz="AD" toTaz="IL" departLane="free" departSpeed="max"/>
    <trip id="76" depart="25.68" from="IL" to="IL" fromTaz="IL" toTaz="IL" departLane="free" departSpeed="max"/>
    <trip id="78" depart="25.71" from="IL" to="IL" fromTaz="IL" toTaz="IL" departLane="free" departSpeed="max"/>
    <trip id="61" depart="27.48" from="IL" to="AD" fromTaz="IL" toTaz="AD" departLane="free" departSpeed="max"/>
    <trip id="77" depart="27.74" from="IL" to="IL" fromTaz="IL" toTaz="IL" departLane="free" departSpeed="max"/>
    <trip id="94" depart="29.98" from="IL" to="IL" fromTaz="IL" toTaz="IL" departLane="free" departSpeed="max"/>
    <trip id="19" depart="31.95" from="AD" to="AD" fromTaz="AD" toTaz="AD" departLane="free" departSpeed="max"/>
    <trip id="91" depart="33.12" from="IL" to="IL" fromTaz="IL" toTaz="IL" departLane="free" departSpeed="max"/>
    <trip id="9" depart="33.45" from="AD" to="AD" fromTaz="AD" toTaz="AD" departLane="free" departSpeed="max"/>
    <trip id="0" depart="35.35" from="AD" to="AD" fromTaz="AD" toTaz="AD" departLane="free" departSpeed="max"/>
    <trip id="87" depart="35.85" from="IL" to="IL" fromTaz="IL" toTaz="IL" departLane="free" departSpeed="max"/>
    <trip id="23" depart="35.86" from="AD" to="AD" fromTaz="AD" toTaz="AD" departLane="free" departSpeed="max"/>
    <trip id="44" depart="35.98" from="AD" to="IL" fromTaz="AD" toTaz="IL" departLane="free" departSpeed="max"/>
    <trip id="47" depart="36.13" from="AD" to="IL" fromTaz="AD" toTaz="IL" departLane="free" departSpeed="max"/>
    <trip id="39" depart="36.17" from="AD" to="IL" fromTaz="AD" toTaz="IL" departLane="free" departSpeed="max"/>
    <trip id="56" depart="37.21" from="IL" to="AD" fromTaz="IL" toTaz="AD" departLane="free" departSpeed="max"/>
    <trip id="31" depart="37.23" from="AD" to="IL" fromTaz="AD" toTaz="IL" departLane="free" departSpeed="max"/>
    <trip id="98" depart="38.04" from="IL" to="IL" fromTaz="IL" toTaz="IL" departLane="free" departSpeed="max"/>
    <trip id="3" depart="38.16" from="AD" to="AD" fromTaz="AD" toTaz="AD" departLane="free" departSpeed="max"/>
    <trip id="92" depart="38.68" from="IL" to="IL" fromTaz="IL" toTaz="IL" departLane="free" departSpeed="max"/>
    <trip id="86" depart="39.75" from="IL" to="IL" fromTaz="IL" toTaz="IL" departLane="free" departSpeed="max"/>
    <trip id="59" depart="39.93" from="IL" to="AD" fromTaz="IL" toTaz="AD" departLane="free" departSpeed="max"/>
    <trip id="50" depart="40.37" from="IL" to="AD" fromTaz="IL" toTaz="AD" departLane="free" departSpeed="max"/>
    <trip id="83" depart="41.10" from="IL" to="IL" fromTaz="IL" toTaz="IL" departLane="free" departSpeed="max"/>
    <trip id="33" depart="42.14" from="AD" to="IL" fromTaz="AD" toTaz="IL" departLane="free" departSpeed="max"/>
    <trip id="99" depart="42.40" from="IL" to="IL" fromTaz="IL" toTaz="IL" departLane="free" departSpeed="max"/>
    <trip id="58" depart="42.63" from="IL" to="AD" fromTaz="IL" toTaz="AD" departLane="free" departSpeed="max"/>
    <trip id="25" depart="43.09" from="AD" to="IL" fromTaz="AD" toTaz="IL" departLane="free" departSpeed="max"/>
    <trip id="14" depart="43.38" from="AD" to="AD" fromTaz="AD" toTaz="AD" departLane="free" departSpeed="max"/>
    <trip id="48" depart="43.64" from="AD" to="IL" fromTaz="AD" toTaz="IL" departLane="free" departSpeed="max"/>
    <trip id="81" depart="45.77" from="IL" to="IL" fromTaz="IL" toTaz="IL" departLane="free" departSpeed="max"/>
    <trip id="69" depart="46.66" from="IL" to="AD" fromTaz="IL" toTaz="AD" departLane="free" departSpeed="max"/>
    <trip id="65" depart="47.37" from="IL" to="AD" fromTaz="IL" toTaz="AD" departLane="free" departSpeed="max"/>
    <trip id="38" depart="48.66" from="AD" to="IL" fromTaz="AD" toTaz="IL" departLane="free" departSpeed="max"/>
    <trip id="53" depart="49.19" from="IL" to="AD" fromTaz="IL" toTaz="AD" departLane="free" departSpeed="max"/>
    <trip id="6" depart="50.04" from="AD" to="AD" fromTaz="AD" toTaz="AD" departLane="free" departSpeed="max"/>
    <trip id="71" depart="50.65" from="IL" to="AD" fromTaz="IL" toTaz="AD" departLane="free" departSpeed="max"/>
    <trip id="74" depart="51.51" from="IL" to="AD" fromTaz="IL" toTaz="AD" departLane="free" departSpeed="max"/>
    <trip id="37" depart="51.51" from="AD" to="IL" fromTaz="AD" toTaz="IL" departLane="free" departSpeed="max"/>
    <trip id="93" depart="51.85" from="IL" to="IL" fromTaz="IL" toTaz="IL" departLane="free" departSpeed="max"/>
    <trip id="11" depart="52.36" from="AD" to="AD" fromTaz="AD" toTaz="AD" departLane="free" departSpeed="max"/>
    <trip id="49" depart="52.60" from="AD" to="IL" fromTaz="AD" toTaz="IL" departLane="free" departSpeed="max"/>
    <trip id="68" depart="52.86" from="IL" to="AD" fromTaz="IL" toTaz="AD" departLane="free" departSpeed="max"/>
    <trip id="82" depart="53.86" from="IL" to="IL" fromTaz="IL" toTaz="IL" departLane="free" departSpeed="max"/>
    <trip id="24" depart="55.48" from="AD" to="AD" fromTaz="AD" toTaz="AD" departLane="free" departSpeed="max"/>
    <trip id="40" depart="55.80" from="AD" to="IL" fromTaz="AD" toTaz="IL" departLane="free" departSpeed="max"/>
    <trip id="7" depart="56.85" from="AD" to="AD" fromTaz="AD" toTaz="AD" departLane="free" departSpeed="max"/>
    <trip id="36" depart="57.03" from="AD" to="IL" fromTaz="AD" toTaz="IL" departLane="free" departSpeed="max"/>
    <trip id="51" depart="57.85" from="IL" to="AD" fromTaz="IL" toTaz="AD" departLane="free" departSpeed="max"/>
    <trip id="80" depart="57.98" from="IL" to="IL" fromTaz="IL" toTaz="IL" departLane="free" departSpeed="max"/>
    <trip id="35" depart="58.99" from="AD" to="IL" fromTaz="AD" toTaz="IL" departLane="free" departSpeed="max"/>
    <trip id="66" depart="59.25" from="IL" to="AD" fromTaz="IL" toTaz="AD" departLane="free" departSpeed="max"/>
</routes>
