<?xml version="1.0" encoding="UTF-8"?>

<!-- generated on 2025-04-06 21:35:16 by Eclipse SUMO od2trips Version 1.22.0
<od2tripsConfiguration xmlns:xsi="http://www.w3.org/2001/XMLSchema-instance" xsi:noNamespaceSchemaLocation="http://sumo.dlr.de/xsd/od2tripsConfiguration.xsd">

    <input>
        <taz-files value="./assets\tazes.taz.xml"/>
        <od-matrix-files value="./assets\matriz.od"/>
    </input>

    <output>
        <output-file value="./assets\traffic.trips.xml"/>
    </output>

</od2tripsConfiguration>
-->

<routes xmlns:xsi="http://www.w3.org/2001/XMLSchema-instance" xsi:noNamespaceSchemaLocation="http://sumo.dlr.de/xsd/routes_file.xsd">
    <trip id="5506" depart="0.02" from="431593428#1" to="806165135" fromTaz="431593428#1" toTaz="806165135" departLane="free" departSpeed="max"/>
    <trip id="2754" depart="0.12" from="298742305#4" to="43990253" fromTaz="298742305#4" toTaz="43990253" departLane="free" departSpeed="max"/>
    <trip id="10960" depart="0.32" from="827477051" to="806165135" fromTaz="827477051" toTaz="806165135" departLane="free" departSpeed="max"/>
    <trip id="7694" depart="0.42" from="498920722#1" to="806165135" fromTaz="498920722#1" toTaz="806165135" departLane="free" departSpeed="max"/>
    <trip id="4585" depart="0.91" from="431593428#1" to="431593420#0" fromTaz="431593428#1" toTaz="431593420#0" departLane="free" departSpeed="max"/>
    <trip id="7112" depart="0.94" from="498920722#1" to="431593420#0" fromTaz="498920722#1" toTaz="431593420#0" departLane="free" departSpeed="max"/>
    <trip id="10099" depart="0.98" from="827477051" to="431593420#0" fromTaz="827477051" toTaz="431593420#0" departLane="free" departSpeed="max"/>
    <trip id="10030" depart="1.18" from="827477051" to="431593420#0" fromTaz="827477051" toTaz="431593420#0" departLane="free" departSpeed="max"/>
    <trip id="9354" depart="1.77" from="827477051" to="1213382698#1" fromTaz="827477051" toTaz="1213382698#1" departLane="free" departSpeed="max"/>
    <trip id="11381" depart="2.18" from="827477051" to="806165135" fromTaz="827477051" toTaz="806165135" departLane="free" departSpeed="max"/>
    <trip id="8575" depart="2.39" from="82685235#5" to="43990253" fromTaz="82685235#5" toTaz="43990253" departLane="free" departSpeed="max"/>
    <trip id="4341" depart="2.54" from="431593428#1" to="431593420#0" fromTaz="431593428#1" toTaz="431593420#0" departLane="free" departSpeed="max"/>
    <trip id="556" depart="2.75" from="119409677#4" to="43990253" fromTaz="119409677#4" toTaz="43990253" departLane="free" departSpeed="max"/>
    <trip id="6321" depart="2.79" from="498920722#1" to="1213382698#1" fromTaz="498920722#1" toTaz="1213382698#1" departLane="free" departSpeed="max"/>
    <trip id="5425" depart="2.84" from="431593428#1" to="806165135" fromTaz="431593428#1" toTaz="806165135" departLane="free" departSpeed="max"/>
    <trip id="7115" depart="2.85" from="498920722#1" to="431593420#0" fromTaz="498920722#1" toTaz="431593420#0" departLane="free" departSpeed="max"/>
    <trip id="8550" depart="2.86" from="82685235#5" to="431593421#0" fromTaz="82685235#5" toTaz="431593421#0" departLane="free" departSpeed="max"/>
    <trip id="8297" depart="3.61" from="653450175#0" to="806165135" fromTaz="653450175#0" toTaz="806165135" departLane="free" departSpeed="max"/>
    <trip id="4367" depart="3.62" from="431593428#1" to="431593420#0" fromTaz="431593428#1" toTaz="431593420#0" departLane="free" departSpeed="max"/>
    <trip id="3915" depart="3.68" from="431593428#1" to="431593420#0" fromTaz="431593428#1" toTaz="431593420#0" departLane="free" departSpeed="max"/>
    <trip id="81" depart="3.84" from="113540625#2" to="1213382698#1" fromTaz="113540625#2" toTaz="1213382698#1" departLane="free" departSpeed="max"/>
    <trip id="8634" depart="4.11" from="82685235#5" to="806165135" fromTaz="82685235#5" toTaz="806165135" departLane="free" departSpeed="max"/>
    <trip id="4375" depart="4.55" from="431593428#1" to="431593420#0" fromTaz="431593428#1" toTaz="431593420#0" departLane="free" departSpeed="max"/>
    <trip id="4298" depart="5.03" from="431593428#1" to="431593420#0" fromTaz="431593428#1" toTaz="431593420#0" departLane="free" departSpeed="max"/>
    <trip id="781" depart="5.11" from="1238647413" to="1213382698#1" fromTaz="1238647413" toTaz="1213382698#1" departLane="free" departSpeed="max"/>
    <trip id="4515" depart="6.04" from="431593428#1" to="431593420#0" fromTaz="431593428#1" toTaz="431593420#0" departLane="free" departSpeed="max"/>
    <trip id="10606" depart="6.54" from="827477051" to="43990253" fromTaz="827477051" toTaz="43990253" departLane="free" departSpeed="max"/>
    <trip id="5966" depart="6.68" from="498920722#1" to="120209283#0" fromTaz="498920722#1" toTaz="120209283#0" departLane="free" departSpeed="max"/>
    <trip id="900" depart="6.74" from="1238647413" to="1213382698#1" fromTaz="1238647413" toTaz="1213382698#1" departLane="free" departSpeed="max"/>
    <trip id="2530" depart="6.88" from="298742305#4" to="1213382698#1" fromTaz="298742305#4" toTaz="1213382698#1" departLane="free" departSpeed="max"/>
    <trip id="3044" depart="7.36" from="431593428#1" to="120209283#0" fromTaz="431593428#1" toTaz="120209283#0" departLane="free" departSpeed="max"/>
    <trip id="44" depart="7.38" from="113540625#2" to="1213382698#1" fromTaz="113540625#2" toTaz="1213382698#1" departLane="free" departSpeed="max"/>
    <trip id="2889" depart="7.43" from="298742305#4" to="806165135" fromTaz="298742305#4" toTaz="806165135" departLane="free" departSpeed="max"/>
    <trip id="9456" depart="7.48" from="827477051" to="1213382698#1" fromTaz="827477051" toTaz="1213382698#1" departLane="free" departSpeed="max"/>
    <trip id="2170" depart="7.55" from="1238647413" to="827083961#1" fromTaz="1238647413" toTaz="827083961#1" departLane="free" departSpeed="max"/>
    <trip id="5457" depart="7.63" from="431593428#1" to="806165135" fromTaz="431593428#1" toTaz="806165135" departLane="free" departSpeed="max"/>
    <trip id="8658" depart="7.73" from="82685235#5" to="806165135" fromTaz="82685235#5" toTaz="806165135" departLane="free" departSpeed="max"/>
    <trip id="9769" depart="7.77" from="827477051" to="431593420#0" fromTaz="827477051" toTaz="431593420#0" departLane="free" departSpeed="max"/>
    <trip id="10009" depart="7.91" from="827477051" to="431593420#0" fromTaz="827477051" toTaz="431593420#0" departLane="free" departSpeed="max"/>
    <trip id="3739" depart="7.99" from="431593428#1" to="1213382698#1" fromTaz="431593428#1" toTaz="1213382698#1" departLane="free" departSpeed="max"/>
    <trip id="6786" depart="8.41" from="498920722#1" to="431593420#0" fromTaz="498920722#1" toTaz="431593420#0" departLane="free" departSpeed="max"/>
    <trip id="4048" depart="8.54" from="431593428#1" to="431593420#0" fromTaz="431593428#1" toTaz="431593420#0" departLane="free" departSpeed="max"/>
    <trip id="327" depart="8.55" from="113540625#2" to="806165135" fromTaz="113540625#2" toTaz="806165135" departLane="free" departSpeed="max"/>
    <trip id="228" depart="8.81" from="113540625#2" to="431593421#0" fromTaz="113540625#2" toTaz="431593421#0" departLane="free" departSpeed="max"/>
    <trip id="9697" depart="8.81" from="827477051" to="431593420#0" fromTaz="827477051" toTaz="431593420#0" departLane="free" departSpeed="max"/>
    <trip id="9590" depart="8.85" from="827477051" to="172365945#0" fromTaz="827477051" toTaz="172365945#0" departLane="free" departSpeed="max"/>
    <trip id="541" depart="8.91" from="119409677#4" to="431593420#0" fromTaz="119409677#4" toTaz="431593420#0" departLane="free" departSpeed="max"/>
    <trip id="5744" depart="8.97" from="431593428#1" to="806165135" fromTaz="431593428#1" toTaz="806165135" departLane="free" departSpeed="max"/>
    <trip id="11612" depart="9.13" from="827477051" to="827083961#1" fromTaz="827477051" toTaz="827083961#1" departLane="free" departSpeed="max"/>
    <trip id="10205" depart="9.14" from="827477051" to="431593420#0" fromTaz="827477051" toTaz="431593420#0" departLane="free" departSpeed="max"/>
    <trip id="3601" depart="9.29" from="431593428#1" to="1213382698#1" fromTaz="431593428#1" toTaz="1213382698#1" departLane="free" departSpeed="max"/>
    <trip id="2094" depart="9.29" from="1238647413" to="806165135" fromTaz="1238647413" toTaz="806165135" departLane="free" departSpeed="max"/>
    <trip id="1832" depart="9.34" from="1238647413" to="806165135" fromTaz="1238647413" toTaz="806165135" departLane="free" departSpeed="max"/>
    <trip id="7082" depart="9.39" from="498920722#1" to="431593420#0" fromTaz="498920722#1" toTaz="431593420#0" departLane="free" departSpeed="max"/>
    <trip id="5140" depart="9.48" from="431593428#1" to="806165135" fromTaz="431593428#1" toTaz="806165135" departLane="free" departSpeed="max"/>
    <trip id="11690" depart="9.73" from="827477051" to="828996513#0" fromTaz="827477051" toTaz="828996513#0" departLane="free" departSpeed="max"/>
    <trip id="10726" depart="10.05" from="827477051" to="43990253" fromTaz="827477051" toTaz="43990253" departLane="free" departSpeed="max"/>
    <trip id="11009" depart="10.34" from="827477051" to="806165135" fromTaz="827477051" toTaz="806165135" departLane="free" departSpeed="max"/>
    <trip id="11219" depart="10.40" from="827477051" to="806165135" fromTaz="827477051" toTaz="806165135" departLane="free" departSpeed="max"/>
    <trip id="2237" depart="10.87" from="132742473#8" to="1213382698#1" fromTaz="132742473#8" toTaz="1213382698#1" departLane="free" departSpeed="max"/>
    <trip id="2999" depart="11.00" from="431593428#1" to="120209283#0" fromTaz="431593428#1" toTaz="120209283#0" departLane="free" departSpeed="max"/>
    <trip id="7512" depart="11.10" from="498920722#1" to="806165135" fromTaz="498920722#1" toTaz="806165135" departLane="free" departSpeed="max"/>
    <trip id="7231" depart="11.11" from="498920722#1" to="431593425#5" fromTaz="498920722#1" toTaz="431593425#5" departLane="free" departSpeed="max"/>
    <trip id="11478" depart="11.29" from="827477051" to="806165135" fromTaz="827477051" toTaz="806165135" departLane="free" departSpeed="max"/>
    <trip id="2635" depart="11.33" from="298742305#4" to="431593420#0" fromTaz="298742305#4" toTaz="431593420#0" departLane="free" departSpeed="max"/>
    <trip id="10858" depart="11.59" from="827477051" to="806165134#0" fromTaz="827477051" toTaz="806165134#0" departLane="free" departSpeed="max"/>
    <trip id="6502" depart="11.86" from="498920722#1" to="1213382698#1" fromTaz="498920722#1" toTaz="1213382698#1" departLane="free" departSpeed="max"/>
    <trip id="8809" depart="12.00" from="827477051" to="120209283#0" fromTaz="827477051" toTaz="120209283#0" departLane="free" departSpeed="max"/>
    <trip id="3397" depart="12.02" from="431593428#1" to="1213382698#1" fromTaz="431593428#1" toTaz="1213382698#1" departLane="free" departSpeed="max"/>
    <trip id="7870" depart="12.76" from="498920722#1" to="806165135" fromTaz="498920722#1" toTaz="806165135" departLane="free" departSpeed="max"/>
    <trip id="2131" depart="12.84" from="1238647413" to="806165135" fromTaz="1238647413" toTaz="806165135" departLane="free" departSpeed="max"/>
    <trip id="317" depart="12.93" from="113540625#2" to="806165135" fromTaz="113540625#2" toTaz="806165135" departLane="free" departSpeed="max"/>
    <trip id="9040" depart="13.47" from="827477051" to="1213382698#1" fromTaz="827477051" toTaz="1213382698#1" departLane="free" departSpeed="max"/>
    <trip id="10798" depart="14.02" from="827477051" to="43990253" fromTaz="827477051" toTaz="43990253" departLane="free" departSpeed="max"/>
    <trip id="4702" depart="14.05" from="431593428#1" to="431593425#5" fromTaz="431593428#1" toTaz="431593425#5" departLane="free" departSpeed="max"/>
    <trip id="1572" depart="14.07" from="1238647413" to="431593425#5" fromTaz="1238647413" toTaz="431593425#5" departLane="free" departSpeed="max"/>
    <trip id="10696" depart="14.52" from="827477051" to="43990253" fromTaz="827477051" toTaz="43990253" departLane="free" departSpeed="max"/>
    <trip id="3355" depart="14.64" from="431593428#1" to="1213382698#1" fromTaz="431593428#1" toTaz="1213382698#1" departLane="free" departSpeed="max"/>
    <trip id="1993" depart="14.71" from="1238647413" to="806165135" fromTaz="1238647413" toTaz="806165135" departLane="free" departSpeed="max"/>
    <trip id="9082" depart="14.75" from="827477051" to="1213382698#1" fromTaz="827477051" toTaz="1213382698#1" departLane="free" departSpeed="max"/>
    <trip id="4064" depart="14.89" from="431593428#1" to="431593420#0" fromTaz="431593428#1" toTaz="431593420#0" departLane="free" departSpeed="max"/>
    <trip id="1318" depart="14.93" from="1238647413" to="431593420#0" fromTaz="1238647413" toTaz="431593420#0" departLane="free" departSpeed="max"/>
    <trip id="3349" depart="14.94" from="431593428#1" to="1213382698#1" fromTaz="431593428#1" toTaz="1213382698#1" departLane="free" departSpeed="max"/>
    <trip id="4321" depart="14.99" from="431593428#1" to="431593420#0" fromTaz="431593428#1" toTaz="431593420#0" departLane="free" departSpeed="max"/>
    <trip id="6064" depart="15.04" from="498920722#1" to="120209283#0" fromTaz="498920722#1" toTaz="120209283#0" departLane="free" departSpeed="max"/>
    <trip id="11006" depart="15.36" from="827477051" to="806165135" fromTaz="827477051" toTaz="806165135" departLane="free" departSpeed="max"/>
    <trip id="8282" depart="15.50" from="653450175#0" to="806165135" fromTaz="653450175#0" toTaz="806165135" departLane="free" departSpeed="max"/>
    <trip id="3572" depart="15.55" from="431593428#1" to="1213382698#1" fromTaz="431593428#1" toTaz="1213382698#1" departLane="free" departSpeed="max"/>
    <trip id="9323" depart="15.59" from="827477051" to="1213382698#1" fromTaz="827477051" toTaz="1213382698#1" departLane="free" departSpeed="max"/>
    <trip id="4796" depart="15.70" from="431593428#1" to="43990253" fromTaz="431593428#1" toTaz="43990253" departLane="free" departSpeed="max"/>
    <trip id="6846" depart="15.74" from="498920722#1" to="431593420#0" fromTaz="498920722#1" toTaz="431593420#0" departLane="free" departSpeed="max"/>
    <trip id="5641" depart="15.87" from="431593428#1" to="806165135" fromTaz="431593428#1" toTaz="806165135" departLane="free" departSpeed="max"/>
    <trip id="2534" depart="15.90" from="298742305#4" to="1213382698#1" fromTaz="298742305#4" toTaz="1213382698#1" departLane="free" departSpeed="max"/>
    <trip id="10152" depart="16.00" from="827477051" to="431593420#0" fromTaz="827477051" toTaz="431593420#0" departLane="free" departSpeed="max"/>
    <trip id="10966" depart="16.41" from="827477051" to="806165135" fromTaz="827477051" toTaz="806165135" departLane="free" departSpeed="max"/>
    <trip id="11149" depart="16.41" from="827477051" to="806165135" fromTaz="827477051" toTaz="806165135" departLane="free" departSpeed="max"/>
    <trip id="9783" depart="16.69" from="827477051" to="431593420#0" fromTaz="827477051" toTaz="431593420#0" departLane="free" departSpeed="max"/>
    <trip id="7620" depart="16.70" from="498920722#1" to="806165135" fromTaz="498920722#1" toTaz="806165135" departLane="free" departSpeed="max"/>
    <trip id="4571" depart="16.88" from="431593428#1" to="431593420#0" fromTaz="431593428#1" toTaz="431593420#0" departLane="free" departSpeed="max"/>
    <trip id="3938" depart="17.21" from="431593428#1" to="431593420#0" fromTaz="431593428#1" toTaz="431593420#0" departLane="free" departSpeed="max"/>
    <trip id="2603" depart="17.55" from="298742305#4" to="431593420#0" fromTaz="298742305#4" toTaz="431593420#0" departLane="free" departSpeed="max"/>
    <trip id="3446" depart="18.86" from="431593428#1" to="1213382698#1" fromTaz="431593428#1" toTaz="1213382698#1" departLane="free" departSpeed="max"/>
    <trip id="11010" depart="18.93" from="827477051" to="806165135" fromTaz="827477051" toTaz="806165135" departLane="free" departSpeed="max"/>
    <trip id="4531" depart="18.94" from="431593428#1" to="431593420#0" fromTaz="431593428#1" toTaz="431593420#0" departLane="free" departSpeed="max"/>
    <trip id="6857" depart="18.95" from="498920722#1" to="431593420#0" fromTaz="498920722#1" toTaz="431593420#0" departLane="free" departSpeed="max"/>
    <trip id="744" depart="18.97" from="1238647413" to="1213382698#1" fromTaz="1238647413" toTaz="1213382698#1" departLane="free" departSpeed="max"/>
    <trip id="9403" depart="19.20" from="827477051" to="1213382698#1" fromTaz="827477051" toTaz="1213382698#1" departLane="free" departSpeed="max"/>
    <trip id="9797" depart="19.33" from="827477051" to="431593420#0" fromTaz="827477051" toTaz="431593420#0" departLane="free" departSpeed="max"/>
    <trip id="9551" depart="19.39" from="827477051" to="1213382698#1" fromTaz="827477051" toTaz="1213382698#1" departLane="free" departSpeed="max"/>
    <trip id="29" depart="19.60" from="113540625#2" to="1213382698#1" fromTaz="113540625#2" toTaz="1213382698#1" departLane="free" departSpeed="max"/>
    <trip id="409" depart="19.61" from="113540625#2" to="828996513#0" fromTaz="113540625#2" toTaz="828996513#0" departLane="free" departSpeed="max"/>
    <trip id="2507" depart="19.73" from="298742305#4" to="1213382698#1" fromTaz="298742305#4" toTaz="1213382698#1" departLane="free" departSpeed="max"/>
    <trip id="5747" depart="19.73" from="431593428#1" to="806165135" fromTaz="431593428#1" toTaz="806165135" departLane="free" departSpeed="max"/>
    <trip id="8058" depart="19.82" from="498920722#1" to="828996513#0" fromTaz="498920722#1" toTaz="828996513#0" departLane="free" departSpeed="max"/>
    <trip id="9469" depart="20.09" from="827477051" to="1213382698#1" fromTaz="827477051" toTaz="1213382698#1" departLane="free" departSpeed="max"/>
    <trip id="603" depart="20.20" from="119409677#4" to="806165135" fromTaz="119409677#4" toTaz="806165135" departLane="free" departSpeed="max"/>
    <trip id="4626" depart="21.21" from="431593428#1" to="431593421#0" fromTaz="431593428#1" toTaz="431593421#0" departLane="free" departSpeed="max"/>
    <trip id="4230" depart="21.26" from="431593428#1" to="431593420#0" fromTaz="431593428#1" toTaz="431593420#0" departLane="free" departSpeed="max"/>
    <trip id="2057" depart="21.26" from="1238647413" to="806165135" fromTaz="1238647413" toTaz="806165135" departLane="free" departSpeed="max"/>
    <trip id="11166" depart="21.29" from="827477051" to="806165135" fromTaz="827477051" toTaz="806165135" departLane="free" departSpeed="max"/>
    <trip id="2788" depart="21.41" from="298742305#4" to="806165134#0" fromTaz="298742305#4" toTaz="806165134#0" departLane="free" departSpeed="max"/>
    <trip id="7953" depart="21.49" from="498920722#1" to="806165135" fromTaz="498920722#1" toTaz="806165135" departLane="free" departSpeed="max"/>
    <trip id="11578" depart="21.74" from="827477051" to="806165135" fromTaz="827477051" toTaz="806165135" departLane="free" departSpeed="max"/>
    <trip id="6821" depart="21.77" from="498920722#1" to="431593420#0" fromTaz="498920722#1" toTaz="431593420#0" departLane="free" departSpeed="max"/>
    <trip id="10577" depart="22.09" from="827477051" to="43990253" fromTaz="827477051" toTaz="43990253" departLane="free" departSpeed="max"/>
    <trip id="8662" depart="22.30" from="82685235#5" to="806165135" fromTaz="82685235#5" toTaz="806165135" departLane="free" departSpeed="max"/>
    <trip id="2124" depart="22.64" from="1238647413" to="806165135" fromTaz="1238647413" toTaz="806165135" departLane="free" departSpeed="max"/>
    <trip id="8043" depart="22.68" from="498920722#1" to="827083961#1" fromTaz="498920722#1" toTaz="827083961#1" departLane="free" departSpeed="max"/>
    <trip id="1388" depart="22.82" from="1238647413" to="431593420#0" fromTaz="1238647413" toTaz="431593420#0" departLane="free" departSpeed="max"/>
    <trip id="9152" depart="22.93" from="827477051" to="1213382698#1" fromTaz="827477051" toTaz="1213382698#1" departLane="free" departSpeed="max"/>
    <trip id="7622" depart="23.02" from="498920722#1" to="806165135" fromTaz="498920722#1" toTaz="806165135" departLane="free" departSpeed="max"/>
    <trip id="2691" depart="23.34" from="298742305#4" to="431593421#0" fromTaz="298742305#4" toTaz="431593421#0" departLane="free" departSpeed="max"/>
    <trip id="10979" depart="23.36" from="827477051" to="806165135" fromTaz="827477051" toTaz="806165135" departLane="free" departSpeed="max"/>
    <trip id="4275" depart="23.87" from="431593428#1" to="431593420#0" fromTaz="431593428#1" toTaz="431593420#0" departLane="free" departSpeed="max"/>
    <trip id="1138" depart="23.89" from="1238647413" to="431593420#0" fromTaz="1238647413" toTaz="431593420#0" departLane="free" departSpeed="max"/>
    <trip id="6638" depart="23.94" from="498920722#1" to="431593420#0" fromTaz="498920722#1" toTaz="431593420#0" departLane="free" departSpeed="max"/>
    <trip id="7680" depart="23.96" from="498920722#1" to="806165135" fromTaz="498920722#1" toTaz="806165135" departLane="free" departSpeed="max"/>
    <trip id="1652" depart="24.00" from="1238647413" to="43990253" fromTaz="1238647413" toTaz="43990253" departLane="free" departSpeed="max"/>
    <trip id="3379" depart="24.04" from="431593428#1" to="1213382698#1" fromTaz="431593428#1" toTaz="1213382698#1" departLane="free" departSpeed="max"/>
    <trip id="5444" depart="24.04" from="431593428#1" to="806165135" fromTaz="431593428#1" toTaz="806165135" departLane="free" departSpeed="max"/>
    <trip id="6884" depart="24.09" from="498920722#1" to="431593420#0" fromTaz="498920722#1" toTaz="431593420#0" departLane="free" departSpeed="max"/>
    <trip id="5894" depart="24.14" from="431593428#1" to="828996513#0" fromTaz="431593428#1" toTaz="828996513#0" departLane="free" departSpeed="max"/>
    <trip id="7003" depart="24.19" from="498920722#1" to="431593420#0" fromTaz="498920722#1" toTaz="431593420#0" departLane="free" departSpeed="max"/>
    <trip id="3857" depart="24.45" from="431593428#1" to="172365945#0" fromTaz="431593428#1" toTaz="172365945#0" departLane="free" departSpeed="max"/>
    <trip id="4929" depart="24.67" from="431593428#1" to="43990253" fromTaz="431593428#1" toTaz="43990253" departLane="free" departSpeed="max"/>
    <trip id="8713" depart="24.76" from="82685235#5" to="827083961#1" fromTaz="82685235#5" toTaz="827083961#1" departLane="free" departSpeed="max"/>
    <trip id="10370" depart="24.79" from="827477051" to="431593421#0" fromTaz="827477051" toTaz="431593421#0" departLane="free" departSpeed="max"/>
    <trip id="1711" depart="24.89" from="1238647413" to="43990253" fromTaz="1238647413" toTaz="43990253" departLane="free" departSpeed="max"/>
    <trip id="8902" depart="24.93" from="827477051" to="1213382698#1" fromTaz="827477051" toTaz="1213382698#1" departLane="free" departSpeed="max"/>
    <trip id="623" depart="24.98" from="119409677#4" to="806165135" fromTaz="119409677#4" toTaz="806165135" departLane="free" departSpeed="max"/>
    <trip id="9402" depart="24.99" from="827477051" to="1213382698#1" fromTaz="827477051" toTaz="1213382698#1" departLane="free" departSpeed="max"/>
    <trip id="3283" depart="25.12" from="431593428#1" to="1213382698#1" fromTaz="431593428#1" toTaz="1213382698#1" departLane="free" departSpeed="max"/>
    <trip id="1948" depart="25.12" from="1238647413" to="806165135" fromTaz="1238647413" toTaz="806165135" departLane="free" departSpeed="max"/>
    <trip id="5903" depart="25.14" from="431593428#1" to="828996513#0" fromTaz="431593428#1" toTaz="828996513#0" departLane="free" departSpeed="max"/>
    <trip id="6841" depart="25.34" from="498920722#1" to="431593420#0" fromTaz="498920722#1" toTaz="431593420#0" departLane="free" departSpeed="max"/>
    <trip id="7279" depart="25.54" from="498920722#1" to="43990253" fromTaz="498920722#1" toTaz="43990253" departLane="free" departSpeed="max"/>
    <trip id="19" depart="25.67" from="113540625#2" to="120209283#0" fromTaz="113540625#2" toTaz="120209283#0" departLane="free" departSpeed="max"/>
    <trip id="3617" depart="25.74" from="431593428#1" to="1213382698#1" fromTaz="431593428#1" toTaz="1213382698#1" departLane="free" departSpeed="max"/>
    <trip id="1763" depart="25.86" from="1238647413" to="806165134#0" fromTaz="1238647413" toTaz="806165134#0" departLane="free" departSpeed="max"/>
    <trip id="3690" depart="26.31" from="431593428#1" to="1213382698#1" fromTaz="431593428#1" toTaz="1213382698#1" departLane="free" departSpeed="max"/>
    <trip id="6369" depart="26.39" from="498920722#1" to="1213382698#1" fromTaz="498920722#1" toTaz="1213382698#1" departLane="free" departSpeed="max"/>
    <trip id="1444" depart="26.53" from="1238647413" to="431593420#0" fromTaz="1238647413" toTaz="431593420#0" departLane="free" departSpeed="max"/>
    <trip id="9912" depart="26.92" from="827477051" to="431593420#0" fromTaz="827477051" toTaz="431593420#0" departLane="free" departSpeed="max"/>
    <trip id="7792" depart="27.06" from="498920722#1" to="806165135" fromTaz="498920722#1" toTaz="806165135" departLane="free" departSpeed="max"/>
    <trip id="58" depart="27.48" from="113540625#2" to="1213382698#1" fromTaz="113540625#2" toTaz="1213382698#1" departLane="free" departSpeed="max"/>
    <trip id="2826" depart="27.65" from="298742305#4" to="806165135" fromTaz="298742305#4" toTaz="806165135" departLane="free" departSpeed="max"/>
    <trip id="8437" depart="27.67" from="82685235#5" to="1213382698#1" fromTaz="82685235#5" toTaz="1213382698#1" departLane="free" departSpeed="max"/>
    <trip id="8660" depart="27.79" from="82685235#5" to="806165135" fromTaz="82685235#5" toTaz="806165135" departLane="free" departSpeed="max"/>
    <trip id="5188" depart="28.02" from="431593428#1" to="806165135" fromTaz="431593428#1" toTaz="806165135" departLane="free" departSpeed="max"/>
    <trip id="7686" depart="28.23" from="498920722#1" to="806165135" fromTaz="498920722#1" toTaz="806165135" departLane="free" departSpeed="max"/>
    <trip id="7244" depart="28.41" from="498920722#1" to="431593425#5" fromTaz="498920722#1" toTaz="431593425#5" departLane="free" departSpeed="max"/>
    <trip id="6784" depart="28.51" from="498920722#1" to="431593420#0" fromTaz="498920722#1" toTaz="431593420#0" departLane="free" departSpeed="max"/>
    <trip id="6907" depart="28.62" from="498920722#1" to="431593420#0" fromTaz="498920722#1" toTaz="431593420#0" departLane="free" departSpeed="max"/>
    <trip id="8037" depart="28.73" from="498920722#1" to="827083961#1" fromTaz="498920722#1" toTaz="827083961#1" departLane="free" departSpeed="max"/>
    <trip id="1297" depart="28.78" from="1238647413" to="431593420#0" fromTaz="1238647413" toTaz="431593420#0" departLane="free" departSpeed="max"/>
    <trip id="1339" depart="28.82" from="1238647413" to="431593420#0" fromTaz="1238647413" toTaz="431593420#0" departLane="free" departSpeed="max"/>
    <trip id="2089" depart="29.15" from="1238647413" to="806165135" fromTaz="1238647413" toTaz="806165135" departLane="free" departSpeed="max"/>
    <trip id="961" depart="29.15" from="1238647413" to="1213382698#1" fromTaz="1238647413" toTaz="1213382698#1" departLane="free" departSpeed="max"/>
    <trip id="5405" depart="29.39" from="431593428#1" to="806165135" fromTaz="431593428#1" toTaz="806165135" departLane="free" departSpeed="max"/>
    <trip id="8815" depart="29.57" from="827477051" to="120209283#0" fromTaz="827477051" toTaz="120209283#0" departLane="free" departSpeed="max"/>
    <trip id="9038" depart="29.70" from="827477051" to="1213382698#1" fromTaz="827477051" toTaz="1213382698#1" departLane="free" departSpeed="max"/>
    <trip id="8913" depart="29.76" from="827477051" to="1213382698#1" fromTaz="827477051" toTaz="1213382698#1" departLane="free" departSpeed="max"/>
    <trip id="11616" depart="29.87" from="827477051" to="827083961#1" fromTaz="827477051" toTaz="827083961#1" departLane="free" departSpeed="max"/>
    <trip id="6497" depart="30.07" from="498920722#1" to="1213382698#1" fromTaz="498920722#1" toTaz="1213382698#1" departLane="free" departSpeed="max"/>
    <trip id="8423" depart="30.12" from="82685235#5" to="1213382698#1" fromTaz="82685235#5" toTaz="1213382698#1" departLane="free" departSpeed="max"/>
    <trip id="5880" depart="30.26" from="431593428#1" to="828996513#0" fromTaz="431593428#1" toTaz="828996513#0" departLane="free" departSpeed="max"/>
    <trip id="7357" depart="30.29" from="498920722#1" to="43990253" fromTaz="498920722#1" toTaz="43990253" departLane="free" departSpeed="max"/>
    <trip id="6258" depart="30.32" from="498920722#1" to="1213382698#1" fromTaz="498920722#1" toTaz="1213382698#1" departLane="free" departSpeed="max"/>
    <trip id="10268" depart="30.70" from="827477051" to="431593420#0" fromTaz="827477051" toTaz="431593420#0" departLane="free" departSpeed="max"/>
    <trip id="4025" depart="31.16" from="431593428#1" to="431593420#0" fromTaz="431593428#1" toTaz="431593420#0" departLane="free" departSpeed="max"/>
    <trip id="6537" depart="31.39" from="498920722#1" to="1213382698#1" fromTaz="498920722#1" toTaz="1213382698#1" departLane="free" departSpeed="max"/>
    <trip id="573" depart="31.44" from="119409677#4" to="43990253" fromTaz="119409677#4" toTaz="43990253" departLane="free" departSpeed="max"/>
    <trip id="1414" depart="31.70" from="1238647413" to="431593420#0" fromTaz="1238647413" toTaz="431593420#0" departLane="free" departSpeed="max"/>
    <trip id="1927" depart="31.80" from="1238647413" to="806165135" fromTaz="1238647413" toTaz="806165135" departLane="free" departSpeed="max"/>
    <trip id="10445" depart="32.07" from="827477051" to="431593425#5" fromTaz="827477051" toTaz="431593425#5" departLane="free" departSpeed="max"/>
    <trip id="9420" depart="32.17" from="827477051" to="1213382698#1" fromTaz="827477051" toTaz="1213382698#1" departLane="free" departSpeed="max"/>
    <trip id="10711" depart="32.25" from="827477051" to="43990253" fromTaz="827477051" toTaz="43990253" departLane="free" departSpeed="max"/>